[TITLE]
Balerma Network  

[JUNCTIONS]
;ID              	Elev        	Demand      	Pattern         
 179001          	60.0000     	5.550000    	                	;
 179             	60.0000     	5.550000    	                	;
 177             	58.9000     	5.550000    	                	;
 174             	60.0000     	5.550000    	                	;
 173             	59.3000     	5.550000    	                	;
 171001          	60.0000     	5.550000    	                	;
 171             	60.0000     	5.550000    	                	;
 172             	60.0000     	5.550000    	                	;
 170             	60.0000     	5.550000    	                	;
 165             	56.7000     	5.550000    	                	;
 166             	57.3000     	5.550000    	                	;
 168             	57.1000     	5.550000    	                	;
 169             	56.5000     	5.550000    	                	;
 163             	55.2000     	5.550000    	                	;
 164             	57.8000     	5.550000    	                	;
 162             	55.2000     	5.550000    	                	;
 161             	55.0000     	5.550000    	                	;
 106             	54.0000     	5.550000    	                	;
 124             	52.2000     	5.550000    	                	;
 125             	51.1000     	5.550000    	                	;
 125001          	49.4000     	5.550000    	                	;
 126             	49.3000     	5.550000    	                	;
 127             	56.5000     	5.550000    	                	;
 128             	55.0000     	5.550000    	                	;
 129             	52.3000     	5.550000    	                	;
 130             	50.2000     	5.550000    	                	;
 132             	55.0000     	5.550000    	                	;
 131001          	57.0000     	5.550000    	                	;
 131             	52.4000     	5.550000    	                	;
 133             	46.6000     	5.550000    	                	;
 134             	28.8000     	5.550000    	                	;
 135             	60.0000     	5.550000    	                	;
 136             	43.3000     	5.550000    	                	;
 137             	25.0000     	5.550000    	                	;
 138             	23.6000     	5.550000    	                	;
 139             	42.5000     	5.550000    	                	;
 141             	50.0000     	5.550000    	                	;
 143             	38.3000     	5.550000    	                	;
 144             	36.8000     	5.550000    	                	;
 145             	27.0000     	5.550000    	                	;
 142             	24.0000     	5.550000    	                	;
 140001          	55.5000     	5.550000    	                	;
 151             	56.5000     	5.550000    	                	;
 152             	55.0000     	5.550000    	                	;
 107             	50.0000     	5.550000    	                	;
 108             	46.2000     	5.550000    	                	;
 109             	48.6000     	5.550000    	                	;
 110             	47.6000     	5.550000    	                	;
 111             	47.1000     	5.550000    	                	;
 113             	47.9000     	5.550000    	                	;
 114             	46.0000     	5.550000    	                	;
 112             	45.6000     	5.550000    	                	;
 115             	50.0000     	5.550000    	                	;
 116             	50.0000     	5.550000    	                	;
 117             	47.5000     	5.550000    	                	;
 118             	45.0000     	5.550000    	                	;
 119             	46.0000     	5.550000    	                	;
 105             	55.8000     	5.550000    	                	;
 102             	54.5000     	5.550000    	                	;
 103             	51.5000     	5.550000    	                	;
 104             	52.4000     	5.550000    	                	;
 100             	53.1000     	5.550000    	                	;
 101             	51.2000     	5.550000    	                	;
 96              	52.8000     	5.550000    	                	;
 97              	51.4000     	5.550000    	                	;
 98              	46.0000     	5.550000    	                	;
 99              	45.0000     	5.550000    	                	;
 93              	50.0000     	5.550000    	                	;
 94              	51.7000     	5.550000    	                	;
 95              	51.4000     	5.550000    	                	;
 92              	40.0000     	5.550000    	                	;
 160             	32.9000     	5.550000    	                	;
 159001          	34.0000     	5.550000    	                	;
 159             	31.4000     	5.550000    	                	;
 156             	34.2000     	5.550000    	                	;
 157             	40.0000     	5.550000    	                	;
 158             	46.0000     	5.550000    	                	;
 155             	34.0000     	5.550000    	                	;
 154             	41.6000     	5.550000    	                	;
 153             	34.0000     	5.550000    	                	;
 91              	42.5000     	5.550000    	                	;
 89              	47.0000     	5.550000    	                	;
 87              	40.3000     	5.550000    	                	;
 86              	41.4000     	5.550000    	                	;
 83              	40.2000     	5.550000    	                	;
 77              	45.0000     	5.550000    	                	;
 81              	44.4000     	5.550000    	                	;
 78              	44.8000     	5.550000    	                	;
 79              	45.8000     	5.550000    	                	;
 80              	46.6000     	5.550000    	                	;
 82              	46.9000     	5.550000    	                	;
 84              	40.0000     	5.550000    	                	;
 85              	50.0000     	5.550000    	                	;
 121             	50.0000     	5.550000    	                	;
 122             	49.3000     	5.550000    	                	;
 123             	47.3000     	5.550000    	                	;
 120             	49.5000     	5.550000    	                	;
 75              	47.0000     	5.550000    	                	;
 76              	47.4000     	5.550000    	                	;
 73              	32.5000     	5.550000    	                	;
 74              	40.0000     	5.550000    	                	;
 227             	52.8000     	5.550000    	                	;
 215001          	75.0000     	5.550000    	                	;
 219             	50.0000     	5.550000    	                	;
 220             	52.3000     	5.550000    	                	;
 221             	51.7000     	5.550000    	                	;
 222             	52.0000     	5.550000    	                	;
 223             	50.8000     	5.550000    	                	;
 223001          	54.5000     	5.550000    	                	;
 224             	50.1000     	5.550000    	                	;
 225             	49.5000     	5.550000    	                	;
 226             	50.7000     	5.550000    	                	;
 266             	71.4000     	5.550000    	                	;
 287             	73.3000     	5.550000    	                	;
 286             	72.0000     	5.550000    	                	;
 285             	71.0000     	5.550000    	                	;
 284             	70.0000     	5.550000    	                	;
 274             	65.5000     	5.550000    	                	;
 275             	66.0000     	5.550000    	                	;
 276             	71.0000     	5.550000    	                	;
 265             	70.0000     	5.550000    	                	;
 268             	65.0000     	5.550000    	                	;
 269             	66.0000     	5.550000    	                	;
 271             	72.4000     	5.550000    	                	;
 270             	73.7000     	5.550000    	                	;
 318             	35.0000     	5.550000    	                	;
 317             	40.0000     	5.550000    	                	;
 316             	46.0000     	5.550000    	                	;
 315             	45.0000     	5.550000    	                	;
 313             	45.0000     	5.550000    	                	;
 314             	40.0000     	5.550000    	                	;
 312             	45.6000     	5.550000    	                	;
 310             	45.7000     	5.550000    	                	;
 311             	48.4000     	5.550000    	                	;
 309             	50.0000     	5.550000    	                	;
 297             	52.0000     	5.550000    	                	;
 298             	55.0000     	5.550000    	                	;
 299             	60.0000     	5.550000    	                	;
 296             	51.7000     	5.550000    	                	;
 294             	48.5000     	5.550000    	                	;
 293             	47.6000     	5.550000    	                	;
 291             	49.0000     	5.550000    	                	;
 295             	51.4000     	5.550000    	                	;
 288             	55.0000     	5.550000    	                	;
 289             	71.0000     	5.550000    	                	;
 290             	68.0000     	5.550000    	                	;
 282             	66.8000     	5.550000    	                	;
 277             	60.0000     	5.550000    	                	;
 278             	67.2000     	5.550000    	                	;
 279             	71.4000     	5.550000    	                	;
 280             	73.6000     	5.550000    	                	;
 281             	75.0000     	5.550000    	                	;
 272             	73.4000     	5.550000    	                	;
 273             	70.0000     	5.550000    	                	;
 264             	70.5000     	5.550000    	                	;
 257001          	71.0000     	5.550000    	                	;
 258001          	74.4000     	5.550000    	                	;
 259001          	71.6000     	5.550000    	                	;
 260001          	75.3000     	5.550000    	                	;
 261             	76.4000     	5.550000    	                	;
 262             	76.0000     	5.550000    	                	;
 263             	75.8000     	5.550000    	                	;
 319             	46.9000     	5.550000    	                	;
 320             	47.5000     	5.550000    	                	;
 302             	50.0000     	5.550000    	                	;
 303             	50.0000     	5.550000    	                	;
 305             	51.0000     	5.550000    	                	;
 306             	54.8000     	5.550000    	                	;
 307             	54.8000     	5.550000    	                	;
 321             	50.0000     	5.550000    	                	;
 322             	47.4000     	5.550000    	                	;
 323             	44.0000     	5.550000    	                	;
 324             	53.4000     	5.550000    	                	;
 368             	58.0000     	5.550000    	                	;
 367             	59.8000     	5.550000    	                	;
 369             	59.2000     	5.550000    	                	;
 370             	59.5000     	5.550000    	                	;
 371             	59.2000     	5.550000    	                	;
 372             	57.2000     	5.550000    	                	;
 373             	68.0000     	5.550000    	                	;
 374             	69.5000     	5.550000    	                	;
 378             	56.6000     	5.550000    	                	;
 379             	53.0000     	5.550000    	                	;
 380             	50.5000     	5.550000    	                	;
 381             	45.0000     	5.550000    	                	;
 382             	45.0000     	5.550000    	                	;
 376             	56.2000     	5.550000    	                	;
 377             	52.7000     	5.550000    	                	;
 383             	52.7000     	5.550000    	                	;
 384             	56.0000     	5.550000    	                	;
 385             	54.7000     	5.550000    	                	;
 601             	56.0000     	0.000000    	                	;
 387             	54.8000     	5.550000    	                	;
 388             	54.8000     	5.550000    	                	;
 389             	55.5000     	5.550000    	                	;
 390             	52.5000     	5.550000    	                	;
 391             	53.0000     	5.550000    	                	;
 392             	52.0000     	5.550000    	                	;
 393             	50.0000     	5.550000    	                	;
 394             	56.4000     	5.550000    	                	;
 395             	55.6000     	5.550000    	                	;
 396             	40.4000     	5.550000    	                	;
 228             	49.8000     	5.550000    	                	;
 229             	49.6000     	5.550000    	                	;
 127001          	56.0000     	5.550000    	                	;
 202001          	70.0000     	5.550000    	                	;
 304             	50.8000     	5.550000    	                	;

[RESERVOIRS]
;ID              	Head        	Pattern         
 38              	117.0000    	                	;
 88              	112.0000    	                	;

[TANKS]
;ID              	Elevation   	InitLevel   	MinLevel    	MaxLevel    	Diameter    	MinVol      	VolCurve        	Overflow

[PIPES]
;ID              	Node1           	Node2           	Length      	Diameter    	Roughness   	MinorLoss   	Status
 1               	126             	125001          	65.0000     	113.0000    	230         	0.0000      	Open  	;
 2               	125001          	125             	260.0000    	113.0000    	230         	0.0000      	Open  	;
 3               	125             	124             	164.0000    	113.0000    	230         	0.0000      	Open  	;
 4               	124             	106             	250.0000    	285.0000    	230         	0.0000      	Open  	;
 8               	106             	161             	100.0000    	162.8000    	230         	0.0000      	Open  	;
 10              	161             	162             	68.0000     	162.8000    	230         	0.0000      	Open  	;
 11              	162             	163             	164.0000    	162.8000    	230         	0.0000      	Open  	;
 12              	163             	164             	164.0000    	113.0000    	230         	0.0000      	Open  	;
 13              	163             	165             	65.0000     	144.6000    	230         	0.0000      	Open  	;
 15              	165             	166             	98.0000     	113.0000    	230         	0.0000      	Open  	;
 16              	166             	168             	145.0000    	113.0000    	230         	0.0000      	Open  	;
 17              	165             	170             	96.0000     	144.6000    	230         	0.0000      	Open  	;
 18              	170             	171001          	181.0000    	126.6000    	230         	0.0000      	Open  	;
 19              	171001          	171             	92.0000     	113.0000    	230         	0.0000      	Open  	;
 20              	171             	172             	100.0000    	113.0000    	230         	0.0000      	Open  	;
 21              	171001          	173             	177.0000    	126.6000    	230         	0.0000      	Open  	;
 22              	173             	179             	159.0000    	113.0000    	230         	0.0000      	Open  	;
 23              	173             	174             	155.0000    	113.0000    	230         	0.0000      	Open  	;
 26              	179             	179001          	168.0000    	113.0000    	230         	0.0000      	Open  	;
 27              	179             	177             	103.0000    	113.0000    	230         	0.0000      	Open  	;
 28              	168             	169             	113.0000    	113.0000    	230         	0.0000      	Open  	;
 30              	124             	127             	850.0000    	285.0000    	230         	0.0000      	Open  	;
 32              	128             	129             	149.0000    	113.0000    	230         	0.0000      	Open  	;
 33              	129             	130             	175.0000    	113.0000    	230         	0.0000      	Open  	;
 34              	127001          	131001          	500.0000    	285.0000    	230         	0.0000      	Open  	;
 35              	131             	132             	134.0000    	113.0000    	230         	0.0000      	Open  	;
 40              	131001          	131             	164.0000    	113.0000    	230         	0.0000      	Open  	;
 41              	131             	133             	137.0000    	113.0000    	230         	0.0000      	Open  	;
 42              	133             	134             	223.0000    	113.0000    	230         	0.0000      	Open  	;
 43              	131001          	135             	394.0000    	285.0000    	230         	0.0000      	Open  	;
 44              	135             	136             	191.0000    	113.0000    	230         	0.0000      	Open  	;
 46              	136             	137             	440.0000    	113.0000    	230         	0.0000      	Open  	;
 47              	136             	138             	459.0000    	113.0000    	230         	0.0000      	Open  	;
 50              	136             	139             	184.0000    	113.0000    	230         	0.0000      	Open  	;
 56              	141             	143             	300.0000    	113.0000    	230         	0.0000      	Open  	;
 57              	143             	144             	116.0000    	113.0000    	230         	0.0000      	Open  	;
 58              	144             	145             	198.0000    	113.0000    	230         	0.0000      	Open  	;
 59              	141             	142             	510.0000    	113.0000    	230         	0.0000      	Open  	;
 61              	141             	140001          	127.0000    	144.6000    	230         	0.0000      	Open  	;
 62              	140001          	151             	189.0000    	144.6000    	230         	0.0000      	Open  	;
 63              	151             	152             	95.0000     	113.0000    	230         	0.0000      	Open  	;
 65              	124             	107             	250.0000    	113.0000    	230         	0.0000      	Open  	;
 67              	107             	108             	375.0000    	113.0000    	230         	0.0000      	Open  	;
 68              	108             	109             	100.0000    	113.0000    	230         	0.0000      	Open  	;
 69              	109             	110             	231.0000    	113.0000    	230         	0.0000      	Open  	;
 70              	110             	111             	61.0000     	113.0000    	230         	0.0000      	Open  	;
 71              	110             	112             	282.0000    	113.0000    	230         	0.0000      	Open  	;
 73              	112             	113             	88.0000     	113.0000    	230         	0.0000      	Open  	;
 74              	113             	114             	134.0000    	113.0000    	230         	0.0000      	Open  	;
 77              	115             	116             	40.0000     	113.0000    	230         	0.0000      	Open  	;
 78              	116             	117             	189.0000    	113.0000    	230         	0.0000      	Open  	;
 81              	119             	118             	225.0000    	113.0000    	230         	0.0000      	Open  	;
 82              	117             	119             	201.0000    	113.0000    	230         	0.0000      	Open  	;
 38              	106             	105             	66.0000     	126.6000    	230         	0.0000      	Open  	;
 39              	105             	102             	78.0000     	126.6000    	230         	0.0000      	Open  	;
 49              	102             	100             	197.0000    	126.6000    	230         	0.0000      	Open  	;
 52              	100             	101             	197.0000    	113.0000    	230         	0.0000      	Open  	;
 53              	102             	103             	177.0000    	113.0000    	230         	0.0000      	Open  	;
 83              	103             	104             	85.0000     	113.0000    	230         	0.0000      	Open  	;
 84              	100             	96              	222.0000    	113.0000    	230         	0.0000      	Open  	;
 86              	96              	97              	288.0000    	113.0000    	230         	0.0000      	Open  	;
 87              	97              	98              	130.0000    	113.0000    	230         	0.0000      	Open  	;
 88              	98              	99              	127.0000    	113.0000    	230         	0.0000      	Open  	;
 89              	96              	93              	96.0000     	113.0000    	230         	0.0000      	Open  	;
 91              	93              	94              	110.0000    	113.0000    	230         	0.0000      	Open  	;
 92              	94              	95              	205.0000    	113.0000    	230         	0.0000      	Open  	;
 94              	93              	92              	176.0000    	113.0000    	230         	0.0000      	Open  	;
 95              	92              	91              	300.0000    	113.0000    	230         	0.0000      	Open  	;
 96              	91              	160             	500.0000    	113.0000    	230         	0.0000      	Open  	;
 97              	160             	159001          	119.0000    	113.0000    	230         	0.0000      	Open  	;
 98              	159001          	159             	228.0000    	113.0000    	230         	0.0000      	Open  	;
 99              	159             	156             	295.0000    	113.0000    	230         	0.0000      	Open  	;
 101             	156             	157             	191.0000    	113.0000    	230         	0.0000      	Open  	;
 102             	157             	158             	129.0000    	113.0000    	230         	0.0000      	Open  	;
 103             	156             	155             	152.0000    	113.0000    	230         	0.0000      	Open  	;
 104             	155             	154             	115.0000    	113.0000    	230         	0.0000      	Open  	;
 105             	155             	153             	444.0000    	113.0000    	230         	0.0000      	Open  	;
 90              	83              	77              	346.0000    	285.0000    	230         	0.0000      	Open  	;
 107             	77              	81              	334.0000    	113.0000    	230         	0.0000      	Open  	;
 191             	81              	78              	73.0000     	113.0000    	230         	0.0000      	Open  	;
 192             	78              	79              	114.0000    	113.0000    	230         	0.0000      	Open  	;
 193             	79              	80              	93.0000     	113.0000    	230         	0.0000      	Open  	;
 198             	84              	85              	161.0000    	113.0000    	230         	0.0000      	Open  	;
 199             	115             	120             	221.0000    	113.0000    	230         	0.0000      	Open  	;
 200             	120             	121             	150.0000    	113.0000    	230         	0.0000      	Open  	;
 201             	121             	122             	254.0000    	113.0000    	230         	0.0000      	Open  	;
 202             	122             	123             	160.0000    	113.0000    	230         	0.0000      	Open  	;
 204             	77              	75              	400.0000    	285.0000    	230         	0.0000      	Open  	;
 208             	77              	76              	66.0000     	113.0000    	230         	0.0000      	Open  	;
 212             	73              	74              	127.0000    	113.0000    	230         	0.0000      	Open  	;
 220             	219             	220             	105.0000    	113.0000    	230         	0.0000      	Open  	;
 224             	220             	221             	187.0000    	113.0000    	230         	0.0000      	Open  	;
 226             	221             	222             	86.0000     	113.0000    	230         	0.0000      	Open  	;
 227             	222             	223             	126.0000    	113.0000    	230         	0.0000      	Open  	;
 228             	221             	223001          	250.0000    	113.0000    	230         	0.0000      	Open  	;
 229             	223001          	224             	116.0000    	113.0000    	230         	0.0000      	Open  	;
 230             	224             	225             	269.0000    	113.0000    	230         	0.0000      	Open  	;
 231             	225             	226             	42.0000     	113.0000    	230         	0.0000      	Open  	;
 251             	215001          	202001          	264.0000    	361.8000    	230         	0.0000      	Open  	;
 333             	202001          	284             	206.0000    	113.0000    	230         	0.0000      	Open  	;
 334             	287             	286             	83.0000     	113.0000    	230         	0.0000      	Open  	;
 335             	286             	285             	165.0000    	113.0000    	230         	0.0000      	Open  	;
 336             	285             	284             	69.0000     	113.0000    	230         	0.0000      	Open  	;
 338             	202001          	38              	200.0000    	452.2000    	230         	0.0000      	Open  	;
 342             	274             	275             	90.0000     	113.0000    	230         	0.0000      	Open  	;
 343             	275             	276             	137.0000    	113.0000    	230         	0.0000      	Open  	;
 346             	268             	269             	58.0000     	113.0000    	230         	0.0000      	Open  	;
 348             	271             	270             	107.0000    	113.0000    	230         	0.0000      	Open  	;
 350             	318             	317             	118.0000    	113.0000    	230         	0.0000      	Open  	;
 351             	317             	316             	177.0000    	113.0000    	230         	0.0000      	Open  	;
 352             	316             	315             	153.0000    	113.0000    	230         	0.0000      	Open  	;
 353             	315             	313             	133.0000    	126.6000    	230         	0.0000      	Open  	;
 354             	313             	314             	170.0000    	113.0000    	230         	0.0000      	Open  	;
 355             	313             	312             	210.0000    	126.6000    	230         	0.0000      	Open  	;
 356             	312             	310             	165.0000    	126.6000    	230         	0.0000      	Open  	;
 357             	310             	311             	115.0000    	113.0000    	230         	0.0000      	Open  	;
 358             	310             	309             	163.0000    	144.6000    	230         	0.0000      	Open  	;
 359             	309             	297             	100.0000    	144.6000    	230         	0.0000      	Open  	;
 361             	297             	298             	110.0000    	113.0000    	230         	0.0000      	Open  	;
 362             	298             	299             	182.0000    	113.0000    	230         	0.0000      	Open  	;
 363             	297             	296             	93.0000     	162.8000    	230         	0.0000      	Open  	;
 364             	296             	294             	151.0000    	162.8000    	230         	0.0000      	Open  	;
 365             	294             	293             	85.0000     	180.8000    	230         	0.0000      	Open  	;
 366             	293             	229             	300.0000    	285.0000    	230         	0.0000      	Open  	;
 367             	293             	291             	250.0000    	180.8000    	230         	0.0000      	Open  	;
 369             	296             	295             	132.0000    	113.0000    	230         	0.0000      	Open  	;
 373             	288             	289             	211.0000    	113.0000    	230         	0.0000      	Open  	;
 374             	289             	290             	69.0000     	113.0000    	230         	0.0000      	Open  	;
 375             	288             	282             	400.0000    	162.8000    	230         	0.0000      	Open  	;
 376             	282             	277             	259.0000    	162.8000    	230         	0.0000      	Open  	;
 379             	277             	278             	155.0000    	144.6000    	230         	0.0000      	Open  	;
 380             	278             	279             	187.0000    	126.6000    	230         	0.0000      	Open  	;
 381             	279             	280             	222.0000    	113.0000    	230         	0.0000      	Open  	;
 382             	280             	281             	82.0000     	113.0000    	230         	0.0000      	Open  	;
 385             	271             	272             	220.0000    	113.0000    	230         	0.0000      	Open  	;
 386             	271             	273             	300.0000    	113.0000    	230         	0.0000      	Open  	;
 394             	268             	260001          	270.0000    	144.6000    	230         	0.0000      	Open  	;
 397             	262             	261             	78.0000     	113.0000    	230         	0.0000      	Open  	;
 401             	262             	263             	90.0000     	113.0000    	230         	0.0000      	Open  	;
 434             	319             	320             	63.0000     	113.0000    	230         	0.0000      	Open  	;
 438             	297             	302             	280.0000    	113.0000    	230         	0.0000      	Open  	;
 439             	302             	303             	103.0000    	113.0000    	230         	0.0000      	Open  	;
 441             	305             	306             	150.0000    	113.0000    	230         	0.0000      	Open  	;
 442             	306             	307             	46.0000     	113.0000    	230         	0.0000      	Open  	;
 443             	320             	321             	314.0000    	113.0000    	230         	0.0000      	Open  	;