[TITLE]
Balerma Network  

[JUNCTIONS]
;ID              	Elev        	Demand      	Pattern         
 215             	60.0000     	5.550000    	                	;
 214             	74.0000     	5.550000    	                	;
 216             	62.7000     	5.550000    	                	;
 217             	62.0000     	5.550000    	                	;
 218             	57.2500     	5.550000    	                	;
 201             	95.0000     	5.550000    	                	;
 203             	94.2000     	5.550000    	                	;
 204             	92.9000     	5.550000    	                	;
 205             	91.4000     	5.550000    	                	;
 211             	90.8000     	5.550000    	                	;
 212             	65.0000     	5.550000    	                	;
 206             	84.2000     	5.550000    	                	;
 207             	80.6000     	5.550000    	                	;
 208             	76.8000     	5.550000    	                	;
 209             	70.0000     	5.550000    	                	;
 210             	70.0000     	5.550000    	                	;
 213             	73.8000     	5.550000    	                	;
 200001          	95.0000     	5.550000    	                	;
 199             	94.0000     	5.550000    	                	;
 196             	92.7000     	5.550000    	                	;
 197             	90.0000     	5.550000    	                	;
 198             	89.6000     	5.550000    	                	;
 233             	87.1700     	5.550000    	                	;
 232             	84.2000     	5.550000    	                	;
 231             	80.5000     	5.550000    	                	;
 230             	72.5000     	5.550000    	                	;
 234             	65.0000     	5.550000    	                	;
 194             	95.0000     	5.550000    	                	;
 195             	95.0000     	5.550000    	                	;
 192             	95.0000     	5.550000    	                	;
 193             	85.0000     	5.550000    	                	;
 234001          	65.0000     	5.550000    	                	;
 235             	71.5000     	5.550000    	                	;
 236             	76.0000     	5.550000    	                	;
 237             	83.0000     	5.550000    	                	;
 238             	81.3000     	5.550000    	                	;
 240             	83.0000     	5.550000    	                	;
 239             	86.3000     	5.550000    	                	;
 190001          	95.0000     	5.550000    	                	;
 187             	95.0000     	5.550000    	                	;
 188             	94.2000     	5.550000    	                	;
 189             	90.5000     	5.550000    	                	;
 186             	95.0000     	5.550000    	                	;
 185             	95.0000     	5.550000    	                	;
 235001          	75.5000     	5.550000    	                	;
 241             	83.3000     	5.550000    	                	;
 242             	87.8000     	5.550000    	                	;
 243             	83.6000     	5.550000    	                	;
 244             	78.1000     	5.550000    	                	;
 245             	83.5000     	5.550000    	                	;
 183             	87.7000     	5.550000    	                	;
 184             	85.7000     	5.550000    	                	;
 182             	95.0000     	5.550000    	                	;
 249             	94.1000     	5.550000    	                	;
 248             	95.0000     	5.550000    	                	;
 247             	90.8000     	5.550000    	                	;
 246             	85.0000     	5.550000    	                	;
 181             	93.0000     	5.550000    	                	;
 180004          	84.2000     	5.550000    	                	;
 190             	95.0000     	5.550000    	                	;
 191             	91.8000     	5.550000    	                	;
 180003          	90.0000     	5.550000    	                	;
 180002          	95.0000     	5.550000    	                	;
 180001          	95.6000     	5.550000    	                	;
 180             	95.0000     	5.550000    	                	;
 200             	77.8000     	5.550000    	                	;
 255             	82.6000     	5.550000    	                	;
 258             	83.5000     	5.550000    	                	;
 259             	83.3000     	5.550000    	                	;
 260             	81.5000     	5.550000    	                	;
 256             	84.0000     	5.550000    	                	;
 257             	87.0000     	5.550000    	                	;
 254             	83.9000     	5.550000    	                	;
 250004          	85.0000     	5.550000    	                	;
 421             	98.1000     	5.550000    	                	;
 420             	99.8000     	5.550000    	                	;
 419             	101.1000    	5.550000    	                	;
 418             	103.0000    	5.550000    	                	;
 416             	103.0000    	5.550000    	                	;
 417             	104.0000    	5.550000    	                	;
 415             	103.0000    	5.550000    	                	;
 414             	102.0000    	5.550000    	                	;
 413             	100.0000    	5.550000    	                	;
 250001          	100.0000    	5.550000    	                	;
 301             	75.2000     	5.550000    	                	;
 300             	75.0000     	5.550000    	                	;
 325             	75.0000     	5.550000    	                	;
 365             	79.7000     	5.550000    	                	;
 362             	80.0000     	5.550000    	                	;
 360001          	80.5000     	5.550000    	                	;
 360             	80.6000     	5.550000    	                	;
 359             	80.7000     	5.550000    	                	;
 361             	79.5000     	5.550000    	                	;
 366             	79.4000     	5.550000    	                	;
 364             	80.0000     	5.550000    	                	;
 363             	80.5000     	5.550000    	                	;
 326             	75.7000     	5.550000    	                	;
 327             	76.5000     	5.550000    	                	;
 328             	77.0000     	5.550000    	                	;
 329             	77.7000     	5.550000    	                	;
 330             	75.3000     	5.550000    	                	;
 334             	80.2000     	5.550000    	                	;
 336             	80.0000     	5.550000    	                	;
 331             	75.7000     	5.550000    	                	;
 332             	75.0000     	5.550000    	                	;
 333             	80.0000     	5.550000    	                	;
 337             	84.3600     	5.550000    	                	;
 338             	81.1000     	5.550000    	                	;
 340             	83.5400     	5.550000    	                	;
 341             	83.6000     	5.550000    	                	;
 250             	83.0000     	5.550000    	                	;
 251             	82.5000     	5.550000    	                	;
 253             	78.8000     	5.550000    	                	;
 252             	78.8000     	5.550000    	                	;
 342             	82.8000     	5.550000    	                	;
 343             	82.2000     	5.550000    	                	;
 344             	80.2000     	5.550000    	                	;
 339             	81.6000     	5.550000    	                	;
 250003          	86.0000     	5.550000    	                	;
 250002          	88.6000     	5.550000    	                	;
 412             	90.0000     	5.550000    	                	;
 411             	89.7000     	5.550000    	                	;
 410             	89.7000     	5.550000    	                	;
 409             	87.0000     	5.550000    	                	;
 408             	86.7000     	5.550000    	                	;
 407001          	85.0000     	5.550000    	                	;
 407             	84.5000     	5.550000    	                	;
 345             	84.4000     	5.550000    	                	;
 346             	84.1000     	5.550000    	                	;
 347             	83.1000     	5.550000    	                	;
 348             	82.9000     	5.550000    	                	;
 349             	82.7600     	5.550000    	                	;
 350             	84.2000     	5.550000    	                	;
 350001          	83.7000     	5.550000    	                	;
 351             	83.6000     	5.550000    	                	;
 356             	82.3000     	5.550000    	                	;
 352             	82.1000     	5.550000    	                	;
 335             	80.4000     	5.550000    	                	;
 406             	84.4000     	5.550000    	                	;
 405             	84.3000     	5.550000    	                	;
 404             	83.7400     	5.550000    	                	;
 353             	81.8000     	5.550000    	                	;
 354             	81.5000     	5.550000    	                	;
 355             	81.1000     	5.550000    	                	;
 357             	82.1000     	5.550000    	                	;
 358             	82.0000     	5.550000    	                	;
 396001          	80.4000     	5.550000    	                	;
 397             	80.5000     	5.550000    	                	;
 398             	80.5000     	5.550000    	                	;
 400             	81.7000     	5.550000    	                	;
 401             	81.7000     	5.550000    	                	;
 402             	80.8000     	5.550000    	                	;
 403             	80.9000     	5.550000    	                	;
 256001          	75.0000     	5.550000    	                	;
 399             	81.7000     	5.550000    	                	;
 301001          	75.0000     	5.550000    	                	;
 422             	103.0000    	5.550000    	                	;

[RESERVOIRS]
;ID              	Head        	Pattern         
 43              	127.0000    	                	;
 44              	122.0000    	                	;

[TANKS]
;ID              	Elevation   	InitLevel   	MinLevel    	MaxLevel    	Diameter    	MinVol      	VolCurve        	Overflow

[PIPES]
;ID              	Node1           	Node2           	Length      	Diameter    	Roughness   	MinorLoss   	Status
 244             	215             	214             	329.0000    	113.0000    	230         	0.0000      	Open  	;
 245             	214             	216             	145.0000    	113.0000    	230         	0.0000      	Open  	;
 246             	216             	217             	56.0000     	113.0000    	230         	0.0000      	Open  	;
 247             	216             	218             	171.0000    	113.0000    	230         	0.0000      	Open  	;
 249             	214             	203             	236.0000    	113.0000    	230         	0.0000      	Open  	;
 254             	203             	204             	108.0000    	144.6000    	230         	0.0000      	Open  	;
 255             	204             	205             	125.0000    	126.6000    	230         	0.0000      	Open  	;
 256             	204             	211             	190.0000    	113.0000    	230         	0.0000      	Open  	;
 257             	211             	212             	269.0000    	113.0000    	230         	0.0000      	Open  	;
 258             	205             	206             	227.0000    	126.6000    	230         	0.0000      	Open  	;
 259             	206             	207             	110.0000    	126.6000    	230         	0.0000      	Open  	;
 260             	207             	208             	110.0000    	113.0000    	230         	0.0000      	Open  	;
 261             	208             	213             	140.0000    	113.0000    	230         	0.0000      	Open  	;
 262             	208             	209             	284.0000    	113.0000    	230         	0.0000      	Open  	;
 263             	209             	210             	298.0000    	113.0000    	230         	0.0000      	Open  	;
 265             	203             	201             	200.0000    	226.2000    	230         	0.0000      	Open  	;
 268             	201             	200001          	150.0000    	226.2000    	230         	0.0000      	Open  	;
 269             	200001          	199             	193.0000    	285.0000    	230         	0.0000      	Open  	;
 271             	234             	230             	73.0000     	144.6000    	230         	0.0000      	Open  	;
 272             	230             	231             	156.0000    	126.6000    	230         	0.0000      	Open  	;
 273             	231             	232             	132.0000    	113.0000    	230         	0.0000      	Open  	;
 274             	232             	233             	106.0000    	113.0000    	230         	0.0000      	Open  	;
 275             	199             	196             	160.0000    	113.0000    	230         	0.0000      	Open  	;
 276             	196             	197             	225.0000    	113.0000    	230         	0.0000      	Open  	;
 277             	197             	198             	93.0000     	113.0000    	230         	0.0000      	Open  	;
 278             	199             	192             	325.0000    	285.0000    	230         	0.0000      	Open  	;
 279             	192             	194             	106.0000    	113.0000    	230         	0.0000      	Open  	;
 280             	194             	195             	194.0000    	113.0000    	230         	0.0000      	Open  	;
 282             	192             	193             	103.0000    	113.0000    	230         	0.0000      	Open  	;
 284             	234             	234001          	149.0000    	144.6000    	230         	0.0000      	Open  	;
 288             	236             	237             	138.0000    	113.0000    	230         	0.0000      	Open  	;
 289             	237             	238             	146.0000    	113.0000    	230         	0.0000      	Open  	;
 291             	238             	239             	147.0000    	162.8000    	230         	0.0000      	Open  	;
 207             	192             	190001          	398.0000    	285.0000    	230         	0.0000      	Open  	;
 292             	190001          	190             	131.0000    	285.0000    	230         	0.0000      	Open  	;
 294             	187             	186             	38.0000     	113.0000    	230         	0.0000      	Open  	;
 295             	186             	185             	78.0000     	113.0000    	230         	0.0000      	Open  	;
 296             	187             	188             	287.0000    	180.8000    	230         	0.0000      	Open  	;
 297             	188             	189             	253.0000    	180.8000    	230         	0.0000      	Open  	;
 299             	235001          	241             	215.0000    	113.0000    	230         	0.0000      	Open  	;
 300             	241             	242             	170.0000    	113.0000    	230         	0.0000      	Open  	;
 301             	241             	243             	135.0000    	113.0000    	230         	0.0000      	Open  	;
 302             	243             	244             	145.0000    	126.6000    	230         	0.0000      	Open  	;
 304             	244             	245             	254.0000    	126.6000    	230         	0.0000      	Open  	;
 306             	182             	183             	103.0000    	113.0000    	230         	0.0000      	Open  	;
 307             	183             	184             	85.0000     	113.0000    	230         	0.0000      	Open  	;
 308             	187             	182             	600.0000    	361.8000    	230         	0.0000      	Open  	;
 311             	182             	249             	300.0000    	361.8000    	230         	0.0000      	Open  	;
 312             	249             	248             	100.0000    	162.8000    	230         	0.0000      	Open  	;
 313             	248             	247             	306.0000    	144.6000    	230         	0.0000      	Open  	;
 315             	247             	246             	256.0000    	144.6000    	230         	0.0000      	Open  	;
 316             	246             	245             	239.0000    	126.6000    	230         	0.0000      	Open  	;
 317             	180001          	249             	450.0000    	361.8000    	230         	0.0000      	Open  	;
 318             	180001          	181             	130.0000    	113.0000    	230         	0.0000      	Open  	;
 322             	187             	190             	268.0000    	285.0000    	230         	0.0000      	Open  	;
 323             	190             	191             	70.0000     	113.0000    	230         	0.0000      	Open  	;
 324             	180004          	180003          	471.0000    	113.0000    	230         	0.0000      	Open  	;
 325             	180002          	180003          	176.0000    	113.0000    	230         	0.0000      	Open  	;
 328             	180             	180001          	190.0000    	361.8000    	230         	0.0000      	Open  	;
 332             	199             	200             	158.0000    	113.0000    	230         	0.0000      	Open  	;
 404             	255             	258             	123.0000    	113.0000    	230         	0.0000      	Open  	;
 405             	258             	259             	86.0000     	113.0000    	230         	0.0000      	Open  	;
 406             	259             	260             	81.0000     	113.0000    	230         	0.0000      	Open  	;
 407             	255             	256             	51.0000     	113.0000    	230         	0.0000      	Open  	;
 408             	256             	257             	212.0000    	113.0000    	230         	0.0000      	Open  	;
 409             	255             	254             	400.0000    	144.6000    	230         	0.0000      	Open  	;
 414             	421             	180002          	218.0000    	113.0000    	230         	0.0000      	Open  	;
 415             	420             	421             	109.0000    	113.0000    	230         	0.0000      	Open  	;
 416             	419             	420             	55.0000     	113.0000    	230         	0.0000      	Open  	;
 417             	418             	419             	214.0000    	126.6000    	230         	0.0000      	Open  	;
 418             	416             	418             	145.0000    	144.6000    	230         	0.0000      	Open  	;
 419             	417             	416             	329.0000    	361.8000    	230         	0.0000      	Open  	;
 421             	416             	415             	372.0000    	361.8000    	230         	0.0000      	Open  	;
 422             	415             	250001          	368.0000    	361.8000    	230         	0.0000      	Open  	;
 423             	415             	414             	96.0000     	113.0000    	230         	0.0000      	Open  	;
 424             	414             	413             	79.0000     	113.0000    	230         	0.0000      	Open  	;
 450             	301             	300             	229.0000    	113.0000    	230         	0.0000      	Open  	;
 460             	365             	325             	363.0000    	226.2000    	230         	0.0000      	Open  	;
 464             	365             	362             	163.0000    	144.6000    	230         	0.0000      	Open  	;
 465             	362             	361             	136.0000    	126.6000    	230         	0.0000      	Open  	;
 467             	361             	360001          	200.0000    	126.6000    	230         	0.0000      	Open  	;
 468             	360001          	360             	59.0000     	113.0000    	230         	0.0000      	Open  	;
 469             	360             	359             	59.0000     	113.0000    	230         	0.0000      	Open  	;
 471             	366             	364             	81.0000     	113.0000    	230         	0.0000      	Open  	;
 472             	364             	363             	142.0000    	113.0000    	230         	0.0000      	Open  	;
 473             	325             	327             	248.0000    	113.0000    	230         	0.0000      	Open  	;
 474             	327             	326             	110.0000    	113.0000    	230         	0.0000      	Open  	;
 476             	327             	328             	66.0000     	113.0000    	230         	0.0000      	Open  	;
 477             	328             	329             	99.0000     	113.0000    	230         	0.0000      	Open  	;
 479             	330             	334             	415.0000    	226.2000    	230         	0.0000      	Open  	;
 481             	331             	333             	350.0000    	113.0000    	230         	0.0000      	Open  	;
 482             	333             	336             	400.0000    	144.6000    	230         	0.0000      	Open  	;
 485             	331             	332             	68.0000     	113.0000    	230         	0.0000      	Open  	;
 486             	254             	250             	459.0000    	226.2000    	230         	0.0000      	Open  	;
 487             	250             	341             	310.0000    	180.8000    	230         	0.0000      	Open  	;
 489             	341             	340             	169.0000    	162.8000    	230         	0.0000      	Open  	;
 490             	340             	338             	176.0000    	162.8000    	230         	0.0000      	Open  	;
 492             	338             	337             	392.0000    	162.8000    	230         	0.0000      	Open  	;
 496             	338             	339             	246.0000    	113.0000    	230         	0.0000      	Open  	;
 497             	341             	342             	87.0000     	113.0000    	230         	0.0000      	Open  	;
 498             	342             	343             	64.0000     	113.0000    	230         	0.0000      	Open  	;
 499             	343             	344             	233.0000    	113.0000    	230         	0.0000      	Open  	;
 500             	250             	251             	90.0000     	113.0000    	230         	0.0000      	Open  	;
 501             	251             	252             	174.0000    	113.0000    	230         	0.0000      	Open  	;
 503             	252             	253             	51.0000     	113.0000    	230         	0.0000      	Open  	;
 506             	250002          	250003          	108.0000    	285.0000    	230         	0.0000      	Open  	;
 508             	412             	411             	190.0000    	361.8000    	230         	0.0000      	Open  	;
 509             	411             	410             	293.0000    	285.0000    	230         	0.0000      	Open  	;
 510             	410             	409             	168.0000    	361.8000    	230         	0.0000      	Open  	;
 511             	409             	408             	317.0000    	285.0000    	230         	0.0000      	Open  	;
 512             	408             	407001          	342.0000    	285.0000    	230         	0.0000      	Open  	;
 513             	407001          	406             	415.0000    	162.8000    	230         	0.0000      	Open  	;
 514             	407001          	350             	142.0000    	285.0000    	230         	0.0000      	Open  	;
 515             	407             	350             	183.0000    	113.0000    	230         	0.0000      	Open  	;
 517             	350             	350001          	131.0000    	113.0000    	230         	0.0000      	Open  	;
 519             	350001          	351             	75.0000     	113.0000    	230         	0.0000      	Open  	;
 520             	350001          	352             	362.0000    	113.0000    	230         	0.0000      	Open  	;
 521             	350001          	356             	392.0000    	113.0000    	230         	0.0000      	Open  	;
 522             	350             	345             	236.0000    	285.0000    	230         	0.0000      	Open  	;
 523             	345             	346             	168.0000    	113.0000    	230         	0.0000      	Open  	;
 524             	346             	347             	263.0000    	113.0000    	230         	0.0000      	Open  	;
 525             	347             	348             	84.0000     	113.0000    	230         	0.0000      	Open  	;
 526             	348             	349             	50.0000     	113.0000    	230         	0.0000      	Open  	;
 530             	334             	335             	182.0000    	113.0000    	230         	0.0000      	Open  	;
 532             	406             	405             	158.0000    	162.8000    	230         	0.0000      	Open  	;
 535             	352             	353             	102.0000    	113.0000    	230         	0.0000      	Open  	;
 536             	353             	354             	69.0000     	113.0000    	230         	0.0000      	Open  	;
 537             	354             	355             	121.0000    	113.0000    	230         	0.0000      	Open  	;
 538             	356             	357             	81.0000     	113.0000    	230         	0.0000      	Open  	;
 539             	357             	358             	96.0000     	113.0000    	230         	0.0000      	Open  	;
 557             	396001          	397             	222.0000    	113.0000    	230         	0.0000      	Open  	;
 558             	397             	398             	31.0000     	113.0000    	230         	0.0000      	Open  	;
 563             	400             	401             	69.0000     	113.0000    	230         	0.0000      	Open  	;
 564             	401             	402             	297.0000    	113.0000    	230         	0.0000      	Open  	;
 565             	402             	403             	83.0000     	113.0000    	230         	0.0000      	Open  	;
 593             	250             	250003          	225.0000    	285.0000    	230         	0.0000      	Open  	;
 161             	235             	235001          	218.0000    	113.0000    	230         	0.0000      	Open  	;
 181             	213             	234             	700.0000    	113.0000    	230         	0.0000      	Open  	;
 196             	325             	330             	380.0000    	226.2000    	230         	0.0000      	Open  	;
 213             	336             	337             	206.0000    	144.6000    	230         	0.0000      	Open  	;
 214             	334             	345             	616.0000    	226.2000    	230         	0.0000      	Open  	;
 266             	405             	404             	177.0000    	144.6000    	230         	0.0000      	Open  	;
 329             	400             	399             	70.0000     	113.0000    	230         	0.0000      	Open  	;
 330             	404             	399             	350.0000    	162.8000    	230         	0.0000      	Open  	;
 337             	399             	396001          	350.0000    	113.0000    	230         	0.0000      	Open  	;
 165             	250001          	412             	611.0000    	361.8000    	230         	0.0000      	Open  	;
 194             	43              	417             	354.0000    	452.2000    	230         	0.0000      	Open  	;
 106             	234001          	235             	500.0000    	113.0000    	230         	0.0000      	Open  	;
 183             	234001          	238             	400.0000    	144.6000    	230         	0.0000      	Open  	;
 206             	238             	240             	44.0000     	113.0000    	230         	0.0000      	Open  	;
 216             	239             	189             	300.0000    	162.8000    	230         	0.0000      	Open  	;
 188             	250002          	44              	800.0000    	285.0000    	230         	0.0000      	Open  	;
 223             	43              	422             	345.0000    	361.8000    	230         	0.0000      	Open  	;
 290             	250004          	413             	750.0000    	113.0000    	230         	0.0000      	Open  	;
 145             	301001          	366             	52.0000     	113.0000    	230         	0.0000      	Open  	;
 185             	365             	301001          	116.0000    	126.6000    	230         	0.0000      	Open  	;
 398             	301001          	301             	79.0000     	113.0000    	230         	0.0000      	Open  	;
 433             	422             	180             	381.0000    	361.8000    	230         	0.0000      	Open  	;
 248             	256001          	254             	500.0000    	180.8000    	230         	0.0000      	Open  	;

[PUMPS]
;ID              	Node1           	Node2           	Parameters

[VALVES]
;ID              	Node1           	Node2           	Diameter    	Type	Setting     	MinorLoss   

[TAGS]

[DEMANDS]
;Junction        	Demand      	Pattern         	Category

[STATUS]
;ID              	Status/Setting

[PATTERNS]
;ID              	Multipliers

[CURVES]
;ID              	X-Value     	Y-Value

[CONTROLS]



[RULES]





[ENERGY]
 Global Efficiency  	75.0000
 Global Price       	0
 Demand Charge      	0.0000

[EMITTERS]
;Junction        	Coefficient

[QUALITY]
;Node            	InitQual

[SOURCES]
;Node            	Type        	Quality     	Pattern

[REACTIONS]
;Type     	Pipe/Tank       	Coefficient


[REACTIONS]
 Order Bulk            	1.00
 Order Tank            	1.00
 Order Wall            	1
 Global Bulk           	0.000000
 Global Wall           	0.000000
 Limiting Potential    	0
 Roughness Correlation 	0

[MIXING]
;Tank            	Model

[TIMES]
 Duration           	0:00 
 Hydraulic Timestep 	1:00 
 Quality Timestep   	0:06 
 Pattern Timestep   	1:00 
 Pattern Start      	0:00 
 Report Timestep    	1:00 
 Report Start       	0:00 
 Start ClockTime    	0:00:00
 Statistic          	NONE

[REPORT]
 Status             	No
 Summary            	No
 Page               	0

[OPTIONS]
 Units              	LPS
 Headloss           	H-W
 Specific Gravity   	1.000000
 Viscosity          	1.000000
 Trials             	40
 Accuracy           	0.00100000
 CHECKFREQ          	2
 MAXCHECK           	10
 DAMPLIMIT          	0.00000000
 Unbalanced         	Continue 10
 Pattern            	1
 Demand Multiplier  	0.4500