[TITLE]
Balerma Network  

[JUNCTIONS]
;ID              	Elev        	Demand      	Pattern         
 55              	30.0000     	5.550000    	                	;
 59              	21.0000     	5.550000    	                	;
 60              	11.0000     	5.550000    	                	;
 61              	5.0000      	5.550000    	                	;
 62              	3.5000      	5.550000    	                	;
 147             	33.0000     	5.550000    	                	;
 150             	45.0000     	5.550000    	                	;
 148             	29.0000     	5.550000    	                	;
 149             	19.0000     	5.550000    	                	;
 63              	9.0000      	5.550000    	                	;
 64              	4.5000      	5.550000    	                	;
 65              	3.3000      	5.550000    	                	;
 66              	1.2000      	5.550000    	                	;
 67              	12.3000     	5.550000    	                	;
 68              	9.3000      	5.550000    	                	;
 69              	8.1600      	5.550000    	                	;
 70              	8.8000      	5.550000    	                	;
 71              	8.1000      	5.550000    	                	;
 72              	7.4000      	5.550000    	                	;
 56              	12.9000     	5.550000    	                	;
 57              	4.8000      	5.550000    	                	;
 58              	3.0000      	5.550000    	                	;
 53              	14.5000     	5.550000    	                	;
 54              	4.1000      	5.550000    	                	;
 52              	31.0000     	5.550000    	                	;
 46001           	33.0000     	5.550000    	                	;
 50              	20.0000     	5.550000    	                	;
 51              	4.4000      	5.550000    	                	;
 47              	13.1000     	5.550000    	                	;
 48              	7.1000      	5.550000    	                	;
 49              	1.6000      	5.550000    	                	;
 42              	15.0000     	5.550000    	                	;
 45              	5.9000      	5.550000    	                	;
 46              	3.5000      	5.550000    	                	;
 41              	31.0000     	5.550000    	                	;
 35              	30.0000     	5.550000    	                	;
 36              	13.0000     	5.550000    	                	;
 39              	10.0000     	5.550000    	                	;
 40              	6.3000      	5.550000    	                	;
 37              	6.0000      	5.550000    	                	;
 90              	45.0000     	5.550000    	                	;
 31              	20.0000     	5.550000    	                	;
 32              	7.1000      	5.550000    	                	;
 34              	4.4000      	5.550000    	                	;
 33              	4.6000      	5.550000    	                	;
 28001           	32.2000     	5.550000    	                	;
 28              	22.5000     	5.550000    	                	;
 29              	9.2000      	5.550000    	                	;
 30              	5.6500      	5.550000    	                	;
 27              	31.2000     	5.550000    	                	;
 26              	12.3000     	5.550000    	                	;
 23              	7.5000      	5.550000    	                	;
 22              	5.2000      	5.550000    	                	;
 21              	4.8000      	5.550000    	                	;
 20              	11.0000     	5.550000    	                	;
 19              	3.2000      	5.550000    	                	;
 18              	8.0000      	5.550000    	                	;
 11              	4.0000      	5.550000    	                	;
 10              	3.3000      	5.550000    	                	;
 9               	1.7000      	5.550000    	                	;
 8               	8.5000      	5.550000    	                	;
 2               	16.5000     	5.550000    	                	;
 1               	13.2000     	5.550000    	                	;
 3               	23.9000     	5.550000    	                	;
 17              	10.0000     	5.550000    	                	;
 16              	8.1000      	5.550000    	                	;
 15              	6.7000      	5.550000    	                	;
 13              	12.4000     	5.550000    	                	;
 12              	15.0000     	5.550000    	                	;
 14              	19.2500     	5.550000    	                	;
 6               	18.4000     	5.550000    	                	;
 5               	12.5000     	5.550000    	                	;
 4               	14.2000     	5.550000    	                	;
 7               	10.0000     	5.550000    	                	;
 24              	10.0000     	5.550000    	                	;
 24001           	10.0000     	5.550000    	                	;
 25              	14.5000     	5.550000    	                	;
 45001           	32.0000     	5.550000    	                	;
 71001           	8.1000      	5.550000    	                	;

[RESERVOIRS]
;ID              	Head        	Pattern         

[TANKS]
;ID              	Elevation   	InitLevel   	MinLevel    	MaxLevel    	Diameter    	MinVol      	VolCurve        	Overflow

[PIPES]
;ID              	Node1           	Node2           	Length      	Diameter    	Roughness   	MinorLoss   	Status
 108             	55              	59              	580.0000    	113.0000    	230         	0.0000      	Open  	;
 110             	59              	60              	350.0000    	113.0000    	230         	0.0000      	Open  	;
 112             	60              	61              	209.0000    	113.0000    	230         	0.0000      	Open  	;
 113             	60              	62              	212.0000    	113.0000    	230         	0.0000      	Open  	;
 115             	147             	148             	250.0000    	144.6000    	230         	0.0000      	Open  	;
 116             	148             	150             	168.0000    	144.6000    	230         	0.0000      	Open  	;
 118             	148             	149             	145.0000    	113.0000    	230         	0.0000      	Open  	;
 121             	63              	64              	172.0000    	113.0000    	230         	0.0000      	Open  	;
 122             	64              	65              	110.0000    	113.0000    	230         	0.0000      	Open  	;
 123             	65              	66              	250.0000    	113.0000    	230         	0.0000      	Open  	;
 125             	67              	68              	148.0000    	113.0000    	230         	0.0000      	Open  	;
 126             	68              	69              	123.0000    	113.0000    	230         	0.0000      	Open  	;
 127             	68              	70              	139.0000    	113.0000    	230         	0.0000      	Open  	;
 128             	70              	71              	210.0000    	126.6000    	230         	0.0000      	Open  	;
 132             	55              	56              	159.0000    	113.0000    	230         	0.0000      	Open  	;
 133             	56              	57              	144.0000    	113.0000    	230         	0.0000      	Open  	;
 134             	57              	58              	148.0000    	113.0000    	230         	0.0000      	Open  	;
 136             	52              	53              	161.0000    	113.0000    	230         	0.0000      	Open  	;
 137             	53              	54              	267.0000    	113.0000    	230         	0.0000      	Open  	;
 138             	55              	52              	320.0000    	162.8000    	230         	0.0000      	Open  	;
 139             	52              	46001           	444.0000    	162.8000    	230         	0.0000      	Open  	;
 140             	46001           	50              	184.0000    	113.0000    	230         	0.0000      	Open  	;
 141             	50              	51              	322.0000    	113.0000    	230         	0.0000      	Open  	;
 142             	46001           	47              	228.0000    	113.0000    	230         	0.0000      	Open  	;
 143             	47              	48              	129.0000    	113.0000    	230         	0.0000      	Open  	;
 144             	48              	49              	254.0000    	113.0000    	230         	0.0000      	Open  	;
 146             	41              	42              	224.0000    	113.0000    	230         	0.0000      	Open  	;
 147             	42              	45              	202.0000    	113.0000    	230         	0.0000      	Open  	;
 148             	45              	46              	162.0000    	113.0000    	230         	0.0000      	Open  	;
 149             	45001           	41              	435.0000    	180.8000    	230         	0.0000      	Open  	;
 150             	41              	35              	488.0000    	226.2000    	230         	0.0000      	Open  	;
 151             	35              	36              	179.0000    	113.0000    	230         	0.0000      	Open  	;
 152             	36              	39              	137.0000    	113.0000    	230         	0.0000      	Open  	;
 153             	39              	40              	160.0000    	113.0000    	230         	0.0000      	Open  	;
 154             	36              	37              	168.0000    	113.0000    	230         	0.0000      	Open  	;
 155             	35              	31              	350.0000    	226.2000    	230         	0.0000      	Open  	;
 157             	31              	32              	246.0000    	113.0000    	230         	0.0000      	Open  	;
 159             	32              	33              	100.0000    	113.0000    	230         	0.0000      	Open  	;
 169             	31              	28              	250.0000    	226.2000    	230         	0.0000      	Open  	;
 170             	28001           	28              	200.0000    	226.2000    	230         	0.0000      	Open  	;
 171             	28              	29              	273.0000    	113.0000    	230         	0.0000      	Open  	;
 172             	29              	30              	205.0000    	113.0000    	230         	0.0000      	Open  	;
 173             	90              	28001           	200.0000    	226.2000    	230         	0.0000      	Open  	;
 174             	28001           	27              	312.0000    	113.0000    	230         	0.0000      	Open  	;
 175             	27              	26              	308.0000    	113.0000    	230         	0.0000      	Open  	;
 176             	26              	23              	40.0000     	113.0000    	230         	0.0000      	Open  	;
 428             	22              	21              	181.0000    	113.0000    	230         	0.0000      	Open  	;
 429             	21              	19              	320.0000    	113.0000    	230         	0.0000      	Open  	;
 430             	19              	18              	236.0000    	113.0000    	230         	0.0000      	Open  	;
 435             	21              	20              	164.0000    	113.0000    	230         	0.0000      	Open  	;
 567             	18              	11              	77.0000     	113.0000    	230         	0.0000      	Open  	;
 568             	11              	10              	130.0000    	113.0000    	230         	0.0000      	Open  	;
 571             	9               	8               	257.0000    	113.0000    	230         	0.0000      	Open  	;
 575             	18              	15              	720.0000    	113.0000    	230         	0.0000      	Open  	;
 576             	15              	13              	351.0000    	113.0000    	230         	0.0000      	Open  	;
 578             	12              	14              	188.0000    	126.6000    	230         	0.0000      	Open  	;
 579             	14              	6               	159.0000    	126.6000    	230         	0.0000      	Open  	;
 580             	6               	5               	189.0000    	126.6000    	230         	0.0000      	Open  	;
 581             	5               	8               	83.0000     	113.0000    	230         	0.0000      	Open  	;
 588             	13              	12              	200.0000    	144.6000    	230         	0.0000      	Open  	;
 589             	15              	16              	94.0000     	113.0000    	230         	0.0000      	Open  	;
 590             	15              	17              	128.0000    	113.0000    	230         	0.0000      	Open  	;
 617             	4               	2               	326.0000    	113.0000    	230         	0.0000      	Open  	;
 618             	2               	3               	135.0000    	113.0000    	230         	0.0000      	Open  	;
 620             	2               	1               	222.0000    	113.0000    	230         	0.0000      	Open  	;
 600             	4               	8               	101.0000    	113.0000    	230         	0.0000      	Open  	;
 601             	8               	7               	101.0000    	113.0000    	230         	0.0000      	Open  	;
 160             	32              	34              	149.0000    	113.0000    	230         	0.0000      	Open  	;
 119             	59              	63              	314.0000    	113.0000    	230         	0.0000      	Open  	;
 120             	63              	67              	419.0000    	113.0000    	230         	0.0000      	Open  	;
 177             	23              	22              	671.0000    	113.0000    	230         	0.0000      	Open  	;
 168             	23              	24              	103.6000    	113.0000    	230         	0.0000      	Open  	;
 182             	24              	24001           	219.0000    	113.0000    	230         	0.0000      	Open  	;
 186             	24001           	25              	214.0000    	113.0000    	230         	0.0000      	Open  	;
 197             	46001           	45001           	80.0000     	226.2000    	230         	0.0000      	Open  	;
 321             	71              	71001           	23.0000     	113.0000    	230         	0.0000      	Open  	;
 368             	71001           	72              	121.0000    	113.0000    	230         	0.0000      	Open  	;
 221             	150             	71              	500.0000    	113.0000    	230         	0.0000      	Open  	;

[PUMPS]
;ID              	Node1           	Node2           	Parameters

[VALVES]
;ID              	Node1           	Node2           	Diameter    	Type	Setting     	MinorLoss   

[TAGS]

[DEMANDS]
;Junction        	Demand      	Pattern         	Category

[STATUS]
;ID              	Status/Setting

[PATTERNS]
;ID              	Multipliers

[CURVES]
;ID              	X-Value     	Y-Value

[CONTROLS]




[RULES]






[ENERGY]
 Global Efficiency  	75.0000
 Global Price       	0
 Demand Charge      	0.0000

[EMITTERS]
;Junction        	Coefficient

[QUALITY]
;Node            	InitQual

[SOURCES]
;Node            	Type        	Quality     	Pattern

[REACTIONS]
;Type     	Pipe/Tank       	Coefficient


[REACTIONS]
 Order Bulk            	1.00
 Order Tank            	1.00
 Order Wall            	1
 Global Bulk           	0.000000
 Global Wall           	0.000000
 Limiting Potential    	0
 Roughness Correlation 	0

[MIXING]
;Tank            	Model

[TIMES]
 Duration           	0:00 
 Hydraulic Timestep 	1:00 
 Quality Timestep   	0:06 
 Pattern Timestep   	1:00 
 Pattern Start      	0:00 
 Report Timestep    	1:00 
 Report Start       	0:00 
 Start ClockTime    	0:00:00
 Statistic          	NONE

[REPORT]
 Status             	No
 Summary            	No
 Page               	0

[OPTIONS]
 Units              	LPS
 Headloss           	H-W
 Specific Gravity   	1.000000
 Viscosity          	1.000000
 Trials             	40
 Accuracy           	0.00100000
 CHECKFREQ          	2
 MAXCHECK           	10
 DAMPLIMIT          	0.00000000
 Unbalanced         	Continue 10
 Pattern            	1
 Demand Multiplier  	0.4500
 Emitter Exponent   	0.5000
 Quality            	NONE mg/L
 Diffusivity        	1.000000
 Tolerance          	0.01000000

[COORDINATES]
;Node            	X-Coord           	Y-Coord
55              	10.160            	-74.250           
59              	43.210            	-148.620          
60              	13.970            	-146.720          
61              	-21.920           	-117.560          
62              	-22.260           	-147.350          
147             	112.280           	-106.200          
150             	136.020           	-160.700          
148             	120.760           	-129.550          
149             	155.570           	-139.750          
63              	77.180            	-215.620          
64              	35.980            	-215.770          
65              	12.720            	-211.990          
66              	-14.880           	-196.830          
67              	107.950           	-225.510          
68              	122.020           	-238.500          
69              	128.520           	-260.690          
70              	139.880           	-234.710          
71              	166.940           	-226.600          
72              	191.730           	-242.440          
56              	-16.500           	-86.990           
57              	-38.150           	-88.070           
58              	-61.420           	-86.990           
53              	-47.350           	-50.190           
54              	-82.520           	-49.110           
52              	-19.370           	-30.740           
46001           	-41.020           	13.420            
50              	-54.380           	-9.600            
51              	-91.720           	-17.720           
47              	-67.910           	22.860            
48              	-83.600           	21.780            
49              	-113.910          	17.450            
42              	-91.390           	75.590            
45              	-118.150          	68.580            
46              	-137.720          	61.280            
41              	-74.780           	84.420            
35              	-96.430           	138.100           
36              	-116.880          	128.650           
39              	-120.130          	117.020           
40              	-122.840          	103.490           
37              	-147.460          	125.410           
90              	-104.900          	229.600           
31              	-113.160          	180.650           
32              	-139.220          	171.110           
34              	-172.280          	178.740           
33              	-166.450          	158.010           
28001           	-126.510          	224.510           
28              	-122.060          	206.710           
29              	-148.120          	202.900           
30              	-175.460          	213.700           
27              	-140.040          	248.480           
26              	-167.750          	261.470           
23              	-167.750          	272.290           
22              	-244.050          	268.090           
21              	-272.220          	287.710           
20              	-252.740          	311.090           
19              	-325.470          	324.950           
18              	-368.060          	362.450           
11              	-383.950          	352.910           
10              	-397.940          	335.750           
9               	-561.830          	418.230           
8               	-621.050          	462.250           
2               	-690.400          	518.230           
1               	-725.470          	529.920           
3               	-657.280          	539.010           
17              	-422.090          	436.190           
16              	-441.160          	454.620           
15              	-453.390          	435.110           
13              	-489.750          	461.740           
12              	-519.620          	486.410           
14              	-545.600          	497.450           
6               	-576.760          	497.450           
5               	-612.480          	472.130           
4               	-659.830          	495.300           
7               	-632.500          	450.810           
24              	-149.910          	274.950           
24001           	-133.000          	276.980           
25              	-114.730          	289.150           
45001           	-49.990           	31.630            
71001           	167.380           	-237.030          

[VERTICES]
;Link            	X-Coord           	Y-Coord

[LABELS]
;X-Coord             Y-Coord             Label & Anchor Node

[BACKDROP]
  DIMENSIONS  	-771.890          	-319.400          	249.300           	972.170           
 UNITS          	None
 FILE           	
 OFFSET         	0.00            	0.00            

[END]
