[TITLE]


[JUNCTIONS]
;ID              	Elev        	Demand      	Pattern         
 1               	6.5         	1011.0356581	P1_PIPELINE     	;
 2               	6.5         	388.55306114	P2_PIPELINE     	;
 3               	6.5         	421.91951085	P3_PIPELINE     	;
 4               	6.5         	187.4538957 	P4_PIPELINE     	;
 5               	6.5         	280.20375681	P5_PIPELINE     	;
 6               	6.5         	11.285977191	P6_PIPELINE     	;
 7               	6.5         	1401.8243154	P7_PIPELINE     	;
 8               	6.5         	612.27732662	P8_PIPELINE     	;
 9               	6.5         	6.5919685189	P9_PIPELINE     	;
 10              	6.5         	6.3329253683	P10_PIPELINE    	;
 11              	6.5         	194.80547667	P11_PIPELINE    	;
 12              	6.5         	5.1457609392	P12_PIPELINE    	;
 13              	6.5         	1.589337758 	P13_PIPELINE    	;
 14              	6.5         	10.500431078	P14_PIPELINE    	;
 15              	6.5         	6.7143409121	P15_PIPELINE    	;
 16              	6.5         	23.218970296	P16_PIPELINE    	;
 17              	6.5         	4.7411367532	P17_PIPELINE    	;
 18              	6.5         	524.46989135	P18_PIPELINE    	;
 19              	6.5         	20.2490178  	P19_PIPELINE    	;
 20              	6.5         	12.999261318	P20_PIPELINE    	;
 21              	6.5         	10.616289371	P21_PIPELINE    	;
 22              	6.5         	629.85341867	P22_PIPELINE    	;
 23              	6.5         	240.93126803	P23_PIPELINE    	;
 24              	6.5         	398.53210523	P24_PIPELINE    	;
 25              	6.5         	639.81338855	P25_PIPELINE    	;
 26              	6.5         	602.97982218	P26_PIPELINE    	;
 27              	6.5         	308.74991174	P27_PIPELINE    	;
 28              	6.5         	168.83438344	P28_PIPELINE    	;
 29              	6.5         	216.55103249	P29_PIPELINE    	;
 30              	6.5         	111.10717843	P30_PIPELINE    	;
 31              	6.5         	3.9979229713	P31_PIPELINE    	;
 32              	6.5         	720.19881277	P32_PIPELINE    	;
 33              	6.5         	1062.1259842	P33_PIPELINE    	;
 34              	6.5         	457.18276374	P34_PIPELINE    	;
 35              	6.5         	113.72068754	P35_PIPELINE    	;
 36              	6.5         	8.2133751482	P36_PIPELINE    	;
 37              	6.5         	283.28628228	P37_PIPELINE    	;
 38              	6.5         	13.283991642	P38_PIPELINE    	;
 39              	6.5         	17.061835804	P39_PIPELINE    	;
 40              	6.5         	3.7859536096	P40_PIPELINE    	;
 41              	6.5         	7.0767545815	P41_PIPELINE    	;
 42              	6.5         	375.81374539	P42_PIPELINE    	;
 43              	6.5         	558.79613189	P43_PIPELINE    	;
 44              	6.5         	462.81226175	P44_PIPELINE    	;
 45              	6.5         	343.55700992	P45_PIPELINE    	;
 46              	6.5         	1607.0807523	P46_PIPELINE    	;
 47              	6.5         	6.5236264926	P47_PIPELINE    	;
 48              	6.5         	2022.9063479	P48_PIPELINE    	;
 49              	6.5         	269.11353065	P49_PIPELINE    	;
 50              	6.5         	7.304879841 	P50_PIPELINE    	;
 51              	6.5         	7.8764603142	P51_PIPELINE    	;
 52              	6.5         	296.71561831	P52_PIPELINE    	;
 53              	6.5         	237.7003624 	P53_PIPELINE    	;
 54              	6.5         	256.82055952	P54_PIPELINE    	;
 55              	6.5         	6.4309364521	P55_PIPELINE    	;
 56              	6.5         	4.1536737561	P56_PIPELINE    	;
 57              	6.5         	145.97539673	P57_PIPELINE    	;
 58              	6.5         	299.62240697	P58_PIPELINE    	;
 59              	6.5         	5.2483814301	P59_PIPELINE    	;
 60              	6.5         	466.04463384	P60_PIPELINE    	;
 61              	6.5         	1871.2177561	P61_PIPELINE    	;
 62              	6.5         	596.46038523	P62_PIPELINE    	;
 63              	6.5         	1406.8514231	P63_PIPELINE    	;
 64              	6.5         	640.14737669	P64_PIPELINE    	;
 65              	6.5         	688.01487549	P65_PIPELINE    	;
 66              	6.5         	192.64066712	P66_PIPELINE    	;
 67              	6.5         	155.39920262	P67_PIPELINE    	;
 68              	6.5         	444.61490698	P68_PIPELINE    	;
 69              	6.5         	636.13752974	P69_PIPELINE    	;
 70              	6.5         	141.67648121	P70_PIPELINE    	;
 71              	6.5         	293.65578243	P71_PIPELINE    	;
 72              	6.5         	234.54965231	P72_PIPELINE    	;
 73              	6.5         	86.385798707	P73_PIPELINE    	;
 74              	6.5         	1.4049312176	P74_PIPELINE    	;
 75              	6.5         	422.1998175 	P75_PIPELINE    	;
 76              	6.5         	181.14862309	P76_PIPELINE    	;
 77              	6.5         	3.6254219582	P77_PIPELINE    	;
 78              	6.5         	2.3167689098	P78_PIPELINE    	;
 79              	6.5         	105.73841159	P79_PIPELINE    	;
 80              	6.5         	2.7170769737	P80_PIPELINE    	;
 81              	6.5         	3.3017359901	P81_PIPELINE    	;
 82              	6.5         	2.7734363027	P82_PIPELINE    	;
 83              	6.5         	1071.4711654	P83_PIPELINE    	;
 84              	6.5         	1.4012903338	P84_PIPELINE    	;
 85              	6.5         	370.19003421	P85_PIPELINE    	;
 86              	6.5         	2.9307157498	P86_PIPELINE    	;
 87              	6.5         	179.65918479	P87_PIPELINE    	;
 88              	6.5         	115.98459267	P88_PIPELINE    	;
 89              	6.5         	265.55567055	P89_PIPELINE    	;
 90              	6.5         	2.2762027611	P90_PIPELINE    	;
 91              	6.5         	146.57624656	P91_PIPELINE    	;
 92              	6.5         	3.0576494849	P92_PIPELINE    	;
 93              	6.5         	790         	P93_PIPELINE    	;
 94              	6.5         	2160.9520139	P94_PIPELINE    	;
 95              	6.5         	2.8339046441	P95_PIPELINE    	;
 96              	6.5         	1200        	P96_PIPELINE    	;
 97              	6.5         	800         	P97_PIPELINE    	;
 98              	6.5         	1300        	P98_PIPELINE    	;
 99              	6.5         	1500        	P99_PIPELINE    	;
 100             	6.5         	176.55141304	P100_PIPELINE   	;
 101             	6.5         	1500        	P101_PIPELINE   	;
 102             	6.5         	4.4179986963	P102_PIPELINE   	;
 103             	6.5         	3.5421517355	P103_PIPELINE   	;
 104             	6.5         	3.41873258  	P104_PIPELINE   	;
 105             	6.5         	7.3500276844	P105_PIPELINE   	;
 106             	6.5         	3.5193200374	P106_PIPELINE   	;
 107             	6.5         	86.436649078	P107_PIPELINE   	;
 108             	6.5         	909.49696671	P108_PIPELINE   	;
 109             	6.5         	198.26454888	P109_PIPELINE   	;
 110             	6.5         	2173.7086964	P110_PIPELINE   	;
 111             	6.5         	5.0939517114	P111_PIPELINE   	;
 112             	6.5         	2.4316920398	P112_PIPELINE   	;
 113             	6.5         	120.29481756	P113_PIPELINE   	;

[RESERVOIRS]
;ID              	Head        	Pattern         
 114             	55          	                	;

[TANKS]
;ID              	Elevation   	InitLevel   	MinLevel    	MaxLevel    	Diameter    	MinVol      	VolCurve        	Overflow

[PIPES]
;ID              	Node1           	Node2           	Length      	Diameter    	Roughness   	MinorLoss   	Status
 1               	2               	1               	812         	600         	130         	0           	Open  	;
 2               	2               	3               	749         	600         	130         	0           	Open  	;
 3               	4               	3               	616         	600         	130         	0           	Open  	;
 4               	1               	4               	770         	600         	130         	0           	Open  	;
 5               	4               	5               	432         	600         	130         	0           	Open  	;
 6               	5               	6               	1099        	600         	130         	0           	Open  	;
 7               	7               	6               	546         	600         	130         	0           	Open  	;
 9               	6               	8               	603         	600         	130         	0           	Open  	;
 10              	8               	9               	627         	600         	130         	0           	Open  	;
 11              	7               	10              	1258        	600         	130         	0           	Open  	;
 12              	9               	10              	563         	600         	130         	0           	Open  	;
 13              	10              	12              	1327        	600         	130         	0           	Open  	;
 14              	9               	11              	939         	600         	130         	0           	Open  	;
 15              	12              	11              	842         	600         	130         	0           	Open  	;
 16              	11              	14              	739         	600         	130         	0           	Open  	;
 17              	80              	13              	576         	600         	130         	0           	Open  	;
 18              	14              	15              	634         	600         	130         	0           	Open  	;
 19              	12              	15              	858         	600         	130         	0           	Open  	;
 21              	16              	17              	520         	600         	130         	0           	Open  	;
 22              	18              	17              	966         	600         	130         	0           	Open  	;
 23              	15              	18              	575         	600         	130         	0           	Open  	;
 24              	19              	18              	620         	600         	130         	0           	Open  	;
 25              	14              	19              	482         	600         	130         	0           	Open  	;
 26              	20              	19              	757         	600         	130         	0           	Open  	;
 27              	21              	20              	973         	600         	130         	0           	Open  	;
 28              	11              	21              	862         	600         	130         	0           	Open  	;
 29              	22              	21              	510         	600         	130         	0           	Open  	;
 30              	22              	9               	1174        	600         	130         	0           	Open  	;
 31              	23              	22              	574         	600         	130         	0           	Open  	;
 32              	8               	23              	1119        	600         	130         	0           	Open  	;
 33              	24              	23              	551         	600         	130         	0           	Open  	;
 34              	6               	24              	1094        	600         	130         	0           	Open  	;
 35              	25              	89              	388         	600         	130         	0           	Open  	;
 37              	26              	25              	591         	600         	130         	0           	Open  	;
 38              	4               	26              	783         	600         	130         	0           	Open  	;
 39              	27              	85              	300         	600         	130         	0           	Open  	;
 40              	3               	27              	758         	600         	130         	0           	Open  	;
 41              	28              	34              	644         	600         	130         	0           	Open  	;
 42              	29              	28              	1324        	600         	130         	0           	Open  	;
 43              	30              	29              	601         	600         	130         	0           	Open  	;
 44              	30              	31              	899         	600         	130         	0           	Open  	;
 45              	31              	32              	794         	600         	130         	0           	Open  	;
 46              	32              	27              	652         	600         	130         	0           	Open  	;
 47              	32              	33              	579         	600         	130         	0           	Open  	;
 48              	33              	26              	684         	600         	130         	0           	Open  	;
 49              	33              	35              	595         	600         	130         	0           	Open  	;
 51              	34              	27              	432         	600         	130         	0           	Open  	;
 52              	35              	36              	610         	600         	130         	0           	Open  	;
 53              	36              	24              	758         	600         	130         	0           	Open  	;
 54              	36              	37              	707         	600         	130         	0           	Open  	;
 55              	37              	23              	731         	600         	130         	0           	Open  	;
 56              	37              	38              	708         	600         	130         	0           	Open  	;
 57              	38              	21              	919         	600         	130         	0           	Open  	;
 58              	38              	39              	925         	600         	130         	0           	Open  	;
 59              	39              	20              	815         	600         	130         	0           	Open  	;
 60              	40              	39              	871         	600         	130         	0           	Open  	;
 61              	41              	40              	1009        	600         	130         	0           	Open  	;
 62              	41              	38              	892         	600         	130         	0           	Open  	;
 63              	42              	41              	534         	600         	130         	0           	Open  	;
 64              	42              	37              	797         	600         	130         	0           	Open  	;
 65              	111             	42              	274         	600         	130         	0           	Open  	;
 66              	43              	36              	776         	600         	130         	0           	Open  	;
 67              	44              	43              	569         	600         	130         	0           	Open  	;
 69              	45              	44              	581         	600         	130         	0           	Open  	;
 71              	31              	45              	552         	600         	130         	0           	Open  	;
 72              	46              	31              	622         	600         	130         	0           	Open  	;
 73              	46              	47              	504         	600         	130         	0           	Open  	;
 74              	47              	45              	635         	600         	130         	0           	Open  	;
 75              	47              	48              	590         	600         	130         	0           	Open  	;
 78              	49              	43              	728         	600         	130         	0           	Open  	;
 79              	49              	50              	686         	600         	130         	0           	Open  	;
 80              	50              	41              	776         	600         	130         	0           	Open  	;
 81              	50              	51              	1016        	600         	130         	0           	Open  	;
 82              	51              	40              	793         	600         	130         	0           	Open  	;
 84              	54              	52              	992         	600         	130         	0           	Open  	;
 85              	62              	53              	728         	600         	130         	0           	Open  	;
 86              	55              	54              	412         	600         	130         	0           	Open  	;
 89              	56              	55              	446         	600         	130         	0           	Open  	;
 91              	57              	56              	570         	600         	130         	0           	Open  	;
 93              	58              	57              	478         	600         	130         	0           	Open  	;
 94              	58              	46              	830         	600         	130         	0           	Open  	;
 95              	59              	58              	1030        	600         	130         	0           	Open  	;
 96              	60              	30              	682         	600         	130         	0           	Open  	;
 97              	59              	60              	775         	600         	130         	0           	Open  	;
 99              	53              	61              	866         	600         	130         	0           	Open  	;
 100             	63              	106             	150         	600         	130         	0           	Open  	;
 101             	109             	75              	679         	600         	130         	0           	Open  	;
 102             	64              	94              	830         	600         	130         	0           	Open  	;
 103             	110             	64              	508         	600         	130         	0           	Open  	;
 104             	110             	59              	1416        	600         	130         	0           	Open  	;
 105             	52              	65              	739         	600         	130         	0           	Open  	;
 106             	54              	66              	716         	600         	130         	0           	Open  	;
 108             	57              	68              	593         	600         	130         	0           	Open  	;
 109             	58              	69              	553         	600         	130         	0           	Open  	;
 110             	66              	65              	930         	600         	130         	0           	Open  	;
 111             	67              	66              	604         	600         	130         	0           	Open  	;
 112             	68              	67              	505         	600         	130         	0           	Open  	;
 113             	69              	68              	454         	600         	130         	0           	Open  	;
 114             	65              	70              	771         	600         	130         	0           	Open  	;
 115             	66              	112             	381         	600         	130         	0           	Open  	;
 116             	94              	75              	1095        	600         	130         	0           	Open  	;
 118             	74              	73              	402         	600         	130         	0           	Open  	;
 119             	69              	74              	392         	600         	130         	0           	Open  	;
 120             	71              	70              	813         	600         	130         	0           	Open  	;
 121             	72              	71              	766         	600         	130         	0           	Open  	;
 122             	73              	72              	399         	600         	130         	0           	Open  	;
 126             	82              	83              	855         	600         	130         	0           	Open  	;
 127             	81              	82              	857         	600         	130         	0           	Open  	;
 128             	80              	81              	473         	600         	130         	0           	Open  	;
 129             	76              	74              	1124        	600         	130         	0           	Open  	;
 130             	79              	80              	1025        	600         	130         	0           	Open  	;
 131             	76              	79              	1125        	600         	130         	0           	Open  	;
 133             	78              	79              	1003        	600         	130         	0           	Open  	;
 134             	77              	78              	954         	600         	130         	0           	Open  	;
 135             	77              	76              	1200        	600         	130         	0           	Open  	;
 136             	110             	77              	435         	600         	130         	0           	Open  	;
 137             	83              	84              	581         	600         	130         	0           	Open  	;
 138             	82              	86              	825         	600         	130         	0           	Open  	;
 139             	81              	87              	854         	600         	130         	0           	Open  	;
 140             	85              	26              	293         	600         	130         	0           	Open  	;
 141             	86              	84              	1118        	600         	130         	0           	Open  	;
 142             	87              	86              	435         	600         	130         	0           	Open  	;
 143             	84              	88              	602         	600         	130         	0           	Open  	;
 144             	90              	88              	806         	600         	130         	0           	Open  	;
 145             	89              	24              	485         	600         	130         	0           	Open  	;
 146             	86              	90              	837         	600         	130         	0           	Open  	;
 147             	91              	90              	390         	600         	130         	0           	Open  	;
 148             	87              	91              	1061        	600         	130         	0           	Open  	;
 149             	91              	98              	628         	600         	130         	0           	Open  	;
 150             	100             	98              	543         	600         	130         	0           	Open  	;
 151             	113             	100             	740         	600         	130         	0           	Open  	;
 152             	104             	100             	988         	600         	130         	0           	Open  	;
 153             	79              	104             	1859        	600         	130         	0           	Open  	;
 154             	105             	104             	405         	600         	130         	0           	Open  	;
 155             	103             	105             	1473        	600         	130         	0           	Open  	;
 156             	78              	103             	1834        	600         	130         	0           	Open  	;
 157             	88              	92              	1155        	600         	130         	0           	Open  	;
 158             	90              	92              	1093        	600         	130         	0           	Open  	;
 159             	92              	93              	552         	600         	130         	0           	Open  	;
 160             	96              	93              	1314        	600         	130         	0           	Open  	;
 161             	95              	93              	621         	600         	130         	0           	Open  	;
 162             	97              	95              	615         	600         	130         	0           	Open  	;
 163             	97              	96              	950         	600         	130         	0           	Open  	;
 164             	98              	97              	467         	600         	130         	0           	Open  	;
 165             	99              	96              	1049        	600         	130         	0           	Open  	;
 166             	100             	99              	1560        	600         	130         	0           	Open  	;
 167             	101             	99              	637         	600         	130         	0           	Open  	;
 168             	104             	101             	1621        	600         	130         	0           	Open  	;
 169             	102             	101             	1024        	600         	130         	0           	Open  	;
 170             	105             	102             	1393        	600         	130         	0           	Open  	;
 171             	103             	102             	1817        	600         	130         	0           	Open  	;
 172             	75              	106             	747         	600         	130         	0           	Open  	;
 173             	64              	107             	543         	600         	130         	0           	Open  	;
 174             	107             	108             	721         	600         	130         	0           	Open  	;
 175             	108             	109             	882         	600         	130         	0           	Open  	;
 176             	64              	109             	966         	600         	130         	0           	Open  	;
 177             	109             	63              	635         	600         	130         	0           	Open  	;
 178             	75              	53              	607         	600         	130         	0           	Open  	;
 179             	94              	61              	450         	600         	130         	0           	Open  	;
 180             	106             	62              	200         	600         	130         	0           	Open  	;
 181             	43              	111             	228         	600         	130         	0           	Open  	;
 182             	112             	71              	413         	600         	130         	0           	Open  	;
 183             	13              	113             	681         	600         	130         	0           	Open  	;
 184             	110             	114             	2013        	600         	130         	0           	Open  	;

[PUMPS]
;ID              	Node1           	Node2           	Parameters

[VALVES]
;ID              	Node1           	Node2           	Diameter    	Type	Setting     	MinorLoss   

[TAGS]

[DEMANDS]
;Junction        	Demand      	Pattern         	Category

[STATUS]
;ID              	Status/Setting

[PATTERNS]
;ID              	Multipliers
;
 P106_PIPELINE   	0.017323    	0.018081    	0.020141    	0.024783    	0.033878    	0.048899    
 P106_PIPELINE   	0.058209    	0.062931    	0.052520    	0.041342    	0.032135    	0.029553    
 P106_PIPELINE   	0.032845    	0.037128    	0.040608    	0.044590    	0.052874    	0.066648    
 P106_PIPELINE   	0.079182    	0.069606    	0.053990    	0.037726    	0.025684    	0.019323    
 P106_PIPELINE   	0.017536    	0.017409    	0.019026    	0.024931    	0.034316    	0.049245    
 P106_PIPELINE   	0.060104    	0.061326    	0.054381    	0.041920    	0.031952    	0.028899    
 P106_PIPELINE   	0.032550    	0.039817    	0.041533    	0.043993    	0.054408    	0.066874    
 P106_PIPELINE   	0.074402    	0.069770    	0.054191    	0.037186    	0.024946    	0.019287    
 P106_PIPELINE   	0.017090    	0.017930    	0.019629    	0.024701    	0.033459    	0.047035    
 P106_PIPELINE   	0.060401    	0.061151    	0.054316    	0.042010    	0.031837    	0.028762    
 P106_PIPELINE   	0.032998    	0.036925    	0.041771    	0.045925    	0.055410    	0.066464    
 P106_PIPELINE   	0.074206    	0.070742    	0.054914    	0.037260    	0.025672    	0.019393    
 P106_PIPELINE   	0.017036    	0.017417    	0.019072    	0.024247    	0.033065    	0.048573    
 P106_PIPELINE   	0.058850    	0.064005    	0.054139    	0.040848    	0.030370    	0.029189    
 P106_PIPELINE   	0.033256    	0.037714    	0.040544    	0.045875    	0.053883    	0.068720    
 P106_PIPELINE   	0.076308    	0.070471    	0.054166    	0.036872    	0.025524    	0.019853    
 P106_PIPELINE   	0.017357    	0.017723    	0.018872    	0.024853    	0.033417    	0.049576    
 P106_PIPELINE   	0.058647    	0.061739    	0.052598    	0.040777    	0.032533    	0.031057    
 P106_PIPELINE   	0.033173    	0.038578    	0.040508    	0.043600    	0.053906    	0.068688    
 P106_PIPELINE   	0.074686    	0.071098    	0.053986    	0.037625    	0.025057    	0.019945    
 P106_PIPELINE   	0.017784    	0.017890    	0.020498    	0.023603    	0.032964    	0.046413    
 P106_PIPELINE   	0.060428    	0.063134    	0.053522    	0.041628    	0.031699    	0.029452    
 P106_PIPELINE   	0.032155    	0.038522    	0.040131    	0.044733    	0.054690    	0.068277    
 P106_PIPELINE   	0.074780    	0.069905    	0.054300    	0.038380    	0.025359    	0.019755    
 P106_PIPELINE   	0.017570    	0.017183    	0.019552    	0.023687    	0.033824    	0.047947    
 P106_PIPELINE   	0.060853    	0.062116    	0.052474    	0.041548    	0.030285    	0.028450    
 P106_PIPELINE   	0.033184    	0.038169    	0.040546    	0.044562    	0.054701    	0.069010    
 P106_PIPELINE   	0.076783    	0.069755    	0.055555    	0.036849    	0.025921    	0.019474    
 P106_PIPELINE   	0.016695    	0.018364    	0.019352    	0.024661    	0.033297    	0.047225    
 P106_PIPELINE   	0.060493    	0.061499    	0.053433    	0.040889    	0.031954    	0.030028    
 P106_PIPELINE   	0.034223    	0.037821    	0.039969    	0.044891    	0.055489    	0.067981    
 P106_PIPELINE   	0.075177    	0.070308    	0.054494    	0.036575    	0.025352    	0.019832    
 P106_PIPELINE   	0.015874    	0.016401    	0.018270    	0.023676    	0.034006    	0.048109    
 P106_PIPELINE   	0.061124    	0.063313    	0.053256    	0.040810    	0.032256    	0.030999    
 P106_PIPELINE   	0.035165    	0.041251    	0.044945    	0.047406    	0.054627    	0.066602    
 P106_PIPELINE   	0.073597    	0.068304    	0.051225    	0.036156    	0.024207    	0.018419    
 P106_PIPELINE   	0.015549    	0.016394    	0.018153    	0.023214    	0.033178    	0.047058    