[TITLE]


[JUNCTIONS]
;ID              	Elev        	Demand      	Pattern         
 13              	6.5000      	124.010000  	                	;
 76              	6.5000      	96.220000   	                	;
 77              	6.5000      	29.690000   	                	;
 78              	6.5000      	38.230000   	                	;
 79              	6.5000      	98.640000   	                	;
 80              	6.5000      	68.230000   	                	;
 81              	6.5000      	45.330000   	                	;
 82              	6.5000      	87.610000   	                	;
 83              	6.5000      	27.970000   	                	;
 84              	6.5000      	50.040000   	                	;
 86              	6.5000      	94.660000   	                	;
 87              	6.5000      	80.230000   	                	;
 88              	6.5000      	85.170000   	                	;
 90              	6.5000      	63.240000   	                	;
 91              	6.5000      	30.030000   	                	;
 92              	6.5000      	23.500000   	                	;
 93              	6.5000      	133.340000  	                	;
 95              	6.5000      	55.020000   	                	;
 96              	6.5000      	35.960000   	                	;
 97              	6.5000      	86.730000   	                	;
 98              	6.5000      	47.110000   	                	;
 99              	6.5000      	36.170000   	                	;
 100             	6.5000      	72.680000   	                	;
 101             	6.5000      	39.170000   	                	;
 102             	6.5000      	40.040000   	                	;
 103             	6.5000      	50.110000   	                	;
 104             	6.5000      	92.700000   	                	;
 105             	6.5000      	57.360000   	                	;
 113             	6.5000      	105.320000  	                	;

[RESERVOIRS]
;ID              	Head        	Pattern         

[TANKS]
;ID              	Elevation   	InitLevel   	MinLevel    	MaxLevel    	Diameter    	MinVol      	VolCurve        	Overflow

[PIPES]
;ID              	Node1           	Node2           	Length      	Diameter    	Roughness   	MinorLoss   	Status
 17              	80              	13              	576.0000    	600.0000    	130.0000    	0.0000      	Open  	;
 126             	82              	83              	855.0000    	600.0000    	130.0000    	0.0000      	Open  	;
 127             	81              	82              	857.0000    	600.0000    	130.0000    	0.0000      	Open  	;
 128             	80              	81              	473.0000    	600.0000    	130.0000    	0.0000      	Open  	;
 130             	79              	80              	1025.0000   	600.0000    	130.0000    	0.0000      	Open  	;
 131             	76              	79              	1125.0000   	600.0000    	130.0000    	0.0000      	Open  	;
 133             	78              	79              	1003.0000   	600.0000    	130.0000    	0.0000      	Open  	;
 134             	77              	78              	954.0000    	600.0000    	130.0000    	0.0000      	Open  	;
 135             	77              	76              	1200.0000   	600.0000    	130.0000    	0.0000      	Open  	;
 137             	83              	84              	581.0000    	600.0000    	130.0000    	0.0000      	Open  	;
 138             	82              	86              	825.0000    	600.0000    	130.0000    	0.0000      	Open  	;
 139             	81              	87              	854.0000    	600.0000    	130.0000    	0.0000      	Open  	;
 141             	86              	84              	1118.0000   	600.0000    	130.0000    	0.0000      	Open  	;
 142             	87              	86              	435.0000    	600.0000    	130.0000    	0.0000      	Open  	;
 143             	84              	88              	602.0000    	600.0000    	130.0000    	0.0000      	Open  	;
 144             	90              	88              	806.0000    	600.0000    	130.0000    	0.0000      	Open  	;
 146             	86              	90              	837.0000    	600.0000    	130.0000    	0.0000      	Open  	;
 147             	91              	90              	390.0000    	600.0000    	130.0000    	0.0000      	Open  	;
 148             	87              	91              	1061.0000   	600.0000    	130.0000    	0.0000      	Open  	;
 149             	91              	98              	628.0000    	600.0000    	130.0000    	0.0000      	Open  	;
 150             	100             	98              	543.0000    	600.0000    	130.0000    	0.0000      	Open  	;
 151             	113             	100             	740.0000    	600.0000    	130.0000    	0.0000      	Open  	;
 152             	104             	100             	988.0000    	600.0000    	130.0000    	0.0000      	Open  	;
 153             	79              	104             	1859.0000   	600.0000    	130.0000    	0.0000      	Open  	;
 154             	105             	104             	405.0000    	600.0000    	130.0000    	0.0000      	Open  	;
 155             	103             	105             	1473.0000   	600.0000    	130.0000    	0.0000      	Open  	;
 156             	78              	103             	1834.0000   	600.0000    	130.0000    	0.0000      	Open  	;
 157             	88              	92              	1155.0000   	600.0000    	130.0000    	0.0000      	Open  	;
 158             	90              	92              	1093.0000   	600.0000    	130.0000    	0.0000      	Open  	;
 159             	92              	93              	552.0000    	600.0000    	130.0000    	0.0000      	Open  	;
 160             	96              	93              	1314.0000   	600.0000    	130.0000    	0.0000      	Open  	;
 161             	95              	93              	621.0000    	600.0000    	130.0000    	0.0000      	Open  	;
 162             	97              	95              	615.0000    	600.0000    	130.0000    	0.0000      	Open  	;
 163             	97              	96              	950.0000    	600.0000    	130.0000    	0.0000      	Open  	;
 164             	98              	97              	467.0000    	600.0000    	130.0000    	0.0000      	Open  	;
 165             	99              	96              	1049.0000   	600.0000    	130.0000    	0.0000      	Open  	;
 166             	100             	99              	1560.0000   	600.0000    	130.0000    	0.0000      	Open  	;
 167             	101             	99              	637.0000    	600.0000    	130.0000    	0.0000      	Open  	;
 168             	104             	101             	1621.0000   	600.0000    	130.0000    	0.0000      	Open  	;
 169             	102             	101             	1024.0000   	600.0000    	130.0000    	0.0000      	Open  	;
 170             	105             	102             	1393.0000   	600.0000    	130.0000    	0.0000      	Open  	;
 171             	103             	102             	1817.0000   	600.0000    	130.0000    	0.0000      	Open  	;
 183             	13              	113             	681.0000    	600.0000    	130.0000    	0.0000      	Open  	;

[PUMPS]
;ID              	Node1           	Node2           	Parameters

[VALVES]
;ID              	Node1           	Node2           	Diameter    	Type	Setting     	MinorLoss   

[TAGS]

[DEMANDS]
;Junction        	Demand      	Pattern         	Category

[STATUS]
;ID              	Status/Setting

[PATTERNS]
;ID              	Multipliers

[CURVES]
;ID              	X-Value     	Y-Value

[CONTROLS]






[RULES]









[ENERGY]
 Global Efficiency  	75.0000
 Global Price       	0
 Demand Charge      	0.0000

[EMITTERS]
;Junction        	Coefficient

[QUALITY]
;Node            	InitQual
 13              	6006.000000
 76              	3648.000000
 77              	2448.000000
 78              	3402.000000
 79              	4405.000000
 80              	5430.000000
 81              	5903.000000
 82              	6760.000000
 83              	7615.000000
 84              	8196.000000
 86              	7192.000000
 87              	6757.000000
 88              	8798.000000
 90              	8029.000000
 91              	7818.000000
 92              	9122.000000
 93              	9498.000000
 95              	8877.000000
 96              	9212.000000
 97              	8262.000000
 98              	7795.000000
 99              	8522.000000
 100             	7252.000000
 101             	7885.000000
 102             	7053.000000
 103             	5236.000000
 104             	6264.000000
 105             	6669.000000
 113             	6687.000000

[SOURCES]
;Node            	Type        	Quality     	Pattern

[REACTIONS]
;Type     	Pipe/Tank       	Coefficient


[REACTIONS]
 Order Bulk            	1.00
 Order Tank            	1.00
 Order Wall            	1
 Global Bulk           	0.000000
 Global Wall           	0.000000
 Limiting Potential    	0
 Roughness Correlation 	0

[MIXING]
;Tank            	Model

[TIMES]
 Duration           	0:00 
 Hydraulic Timestep 	1:00 
 Quality Timestep   	0:05 
 Pattern Timestep   	1:00 
 Pattern Start      	0:00 
 Report Timestep    	1:00 
 Report Start       	0:00 
 Start ClockTime    	0:00:00
 Statistic          	NONE

[REPORT]
 Status             	No
 Summary            	No
 Page               	0

[OPTIONS]
 Units              	LPS
 Headloss           	H-W
 Specific Gravity   	1.000000
 Viscosity          	1.000000
 Trials             	40
 Accuracy           	0.00100000
 CHECKFREQ          	2
 MAXCHECK           	10
 DAMPLIMIT          	0.00000000
 Unbalanced         	Continue 10
 Pattern            	1
 Demand Multiplier  	0.2
 Emitter Exponent   	0.5000
 Quality            	NONE mg/L
 Diffusivity        	1.000000
 Tolerance          	0.01000000

[COORDINATES]
;Node            	X-Coord           	Y-Coord
13              	158.610           	336.940           
76              	249.720           	368.970           
77              	250.020           	429.560           
78              	203.540           	435.760           
79              	196.240           	386.700           
80              	187.690           	336.720           
81              	189.930           	312.940           
82              	185.410           	270.130           
83              	173.690           	228.590           
84              	144.510           	231.370           
86              	147.620           	287.730           
87              	146.890           	309.710           
88              	114.430           	235.720           
90              	108.140           	275.400           
91              	99.130            	292.890           
92              	58.810            	252.860           
93              	34.110            	265.590           
95              	47.030            	294.160           
96              	11.480            	323.520           
97              	59.450            	322.650           
98              	82.540            	319.910           
99              	15.470            	375.960           
100             	88.540            	346.640           
101             	27.190            	405.840           
102             	56.020            	448.590           
103             	127.620           	482.000           
104             	105.550           	393.560           
105             	115.690           	411.300           
113             	124.220           	337.660           

[VERTICES]
;Link            	X-Coord           	Y-Coord

[LABELS]
;X-Coord             Y-Coord             Label & Anchor Node

[BACKDROP]
  DIMENSIONS  	0.000             	0.000             	10000.000         	10000.000         
 UNITS          	None
 FILE           	
 OFFSET         	0.00            	0.00            

[END]
