[TITLE]


[JUNCTIONS]
;ID              	Elev        	Demand      	Pattern         
 6               	6.5000      	55.950000   	                	;
 7               	6.5000      	119.870000  	                	;
 8               	6.5000      	28.250000   	                	;
 9               	6.5000      	40.130000   	                	;
 10              	6.5000      	32.860000   	                	;
 11              	6.5000      	52.070000   	                	;
 12              	6.5000      	33.280000   	                	;
 14              	6.5000      	27.670000   	                	;
 15              	6.5000      	61.540000   	                	;
 16              	6.5000      	18.450000   	                	;
 17              	6.5000      	73.140000   	                	;
 18              	6.5000      	39.220000   	                	;
 19              	6.5000      	13.150000   	                	;
 20              	6.5000      	25.560000   	                	;
 21              	6.5000      	86.020000   	                	;
 22              	6.5000      	58.900000   	                	;
 23              	6.5000      	42.380000   	                	;
 24              	6.5000      	65.640000   	                	;
 36              	6.5000      	75.770000   	                	;
 37              	6.5000      	37.740000   	                	;
 38              	6.5000      	69.010000   	                	;
 39              	6.5000      	22.450000   	                	;
 40              	6.5000      	31.730000   	                	;
 41              	6.5000      	59.190000   	                	;
 42              	6.5000      	46.830000   	                	;
 43              	6.5000      	33.700000   	                	;
 49              	6.5000      	36.820000   	                	;
 50              	6.5000      	56.300000   	                	;
 51              	6.5000      	59.130000   	                	;
 111             	6.5000      	73.500000   	                	;

[RESERVOIRS]
;ID              	Head        	Pattern         

[TANKS]
;ID              	Elevation   	InitLevel   	MinLevel    	MaxLevel    	Diameter    	MinVol      	VolCurve        	Overflow

[PIPES]
;ID              	Node1           	Node2           	Length      	Diameter    	Roughness   	MinorLoss   	Status
 7               	7               	6               	546.0000    	600.0000    	130.0000    	0.0000      	Open  	;
 9               	6               	8               	603.0000    	600.0000    	130.0000    	0.0000      	Open  	;
 10              	8               	9               	627.0000    	600.0000    	130.0000    	0.0000      	Open  	;
 11              	7               	10              	1258.0000   	600.0000    	130.0000    	0.0000      	Open  	;
 12              	9               	10              	563.0000    	600.0000    	130.0000    	0.0000      	Open  	;
 13              	10              	12              	1327.0000   	600.0000    	130.0000    	0.0000      	Open  	;
 14              	9               	11              	939.0000    	600.0000    	130.0000    	0.0000      	Open  	;
 15              	12              	11              	842.0000    	600.0000    	130.0000    	0.0000      	Open  	;
 16              	11              	14              	739.0000    	600.0000    	130.0000    	0.0000      	Open  	;
 18              	14              	15              	634.0000    	600.0000    	130.0000    	0.0000      	Open  	;
 19              	12              	15              	858.0000    	600.0000    	130.0000    	0.0000      	Open  	;
 21              	16              	17              	520.0000    	600.0000    	130.0000    	0.0000      	Open  	;
 22              	18              	17              	966.0000    	600.0000    	130.0000    	0.0000      	Open  	;
 23              	15              	18              	575.0000    	600.0000    	130.0000    	0.0000      	Open  	;
 24              	19              	18              	620.0000    	600.0000    	130.0000    	0.0000      	Open  	;
 25              	14              	19              	482.0000    	600.0000    	130.0000    	0.0000      	Open  	;
 26              	20              	19              	757.0000    	600.0000    	130.0000    	0.0000      	Open  	;
 27              	21              	20              	973.0000    	600.0000    	130.0000    	0.0000      	Open  	;
 28              	11              	21              	862.0000    	600.0000    	130.0000    	0.0000      	Open  	;
 29              	22              	21              	510.0000    	600.0000    	130.0000    	0.0000      	Open  	;
 30              	22              	9               	1174.0000   	600.0000    	130.0000    	0.0000      	Open  	;
 31              	23              	22              	574.0000    	600.0000    	130.0000    	0.0000      	Open  	;
 32              	8               	23              	1119.0000   	600.0000    	130.0000    	0.0000      	Open  	;
 33              	24              	23              	551.0000    	600.0000    	130.0000    	0.0000      	Open  	;
 34              	6               	24              	1094.0000   	600.0000    	130.0000    	0.0000      	Open  	;
 53              	36              	24              	758.0000    	600.0000    	130.0000    	0.0000      	Open  	;
 54              	36              	37              	707.0000    	600.0000    	130.0000    	0.0000      	Open  	;
 55              	37              	23              	731.0000    	600.0000    	130.0000    	0.0000      	Open  	;
 56              	37              	38              	708.0000    	600.0000    	130.0000    	0.0000      	Open  	;
 57              	38              	21              	919.0000    	600.0000    	130.0000    	0.0000      	Open  	;
 58              	38              	39              	925.0000    	600.0000    	130.0000    	0.0000      	Open  	;
 59              	39              	20              	815.0000    	600.0000    	130.0000    	0.0000      	Open  	;
 60              	40              	39              	871.0000    	600.0000    	130.0000    	0.0000      	Open  	;
 61              	41              	40              	1009.0000   	600.0000    	130.0000    	0.0000      	Open  	;
 62              	41              	38              	892.0000    	600.0000    	130.0000    	0.0000      	Open  	;
 63              	42              	41              	534.0000    	600.0000    	130.0000    	0.0000      	Open  	;
 64              	42              	37              	797.0000    	600.0000    	130.0000    	0.0000      	Open  	;
 65              	111             	42              	274.0000    	600.0000    	130.0000    	0.0000      	Open  	;
 66              	43              	36              	776.0000    	600.0000    	130.0000    	0.0000      	Open  	;
 78              	49              	43              	728.0000    	600.0000    	130.0000    	0.0000      	Open  	;
 79              	49              	50              	686.0000    	600.0000    	130.0000    	0.0000      	Open  	;
 80              	50              	41              	776.0000    	600.0000    	130.0000    	0.0000      	Open  	;
 81              	50              	51              	1016.0000   	600.0000    	130.0000    	0.0000      	Open  	;
 82              	51              	40              	793.0000    	600.0000    	130.0000    	0.0000      	Open  	;
 181             	43              	111             	228.0000    	600.0000    	130.0000    	0.0000      	Open  	;

[PUMPS]
;ID              	Node1           	Node2           	Parameters

[VALVES]
;ID              	Node1           	Node2           	Diameter    	Type	Setting     	MinorLoss   

[TAGS]

[DEMANDS]
;Junction        	Demand      	Pattern         	Category

[STATUS]
;ID              	Status/Setting

[PATTERNS]
;ID              	Multipliers

[CURVES]
;ID              	X-Value     	Y-Value

[CONTROLS]






[RULES]









[ENERGY]
 Global Efficiency  	75.0000
 Global Price       	0
 Demand Charge      	0.0000

[EMITTERS]
;Junction        	Coefficient

[QUALITY]
;Node            	InitQual
 6               	10115.000000
 7               	10661.000000
 8               	10636.000000
 9               	11263.000000
 10              	11826.000000
 11              	11196.000000
 12              	12038.000000
 14              	11935.000000
 15              	12569.000000
 16              	14018.000000
 17              	13498.000000
 18              	12532.000000
 19              	11912.000000
 20              	11155.000000
 21              	10334.000000
 22              	10091.000000
 23              	9517.000000
 24              	9021.000000
 36              	8263.000000
 37              	8786.000000
 38              	9415.000000
 39              	10340.000000
 40              	9532.000000
 41              	8523.000000
 42              	7989.000000
 43              	7487.000000
 49              	8215.000000
 50              	8901.000000
 51              	9917.000000
 111             	7715.000000

[SOURCES]
;Node            	Type        	Quality     	Pattern

[REACTIONS]
;Type     	Pipe/Tank       	Coefficient


[REACTIONS]
 Order Bulk            	1.00
 Order Tank            	1.00
 Order Wall            	1
 Global Bulk           	0.000000
 Global Wall           	0.000000
 Limiting Potential    	0
 Roughness Correlation 	0

[MIXING]
;Tank            	Model

[TIMES]
 Duration           	0:00 
 Hydraulic Timestep 	1:00 
 Quality Timestep   	0:05 
 Pattern Timestep   	1:00 
 Pattern Start      	0:00 
 Report Timestep    	1:00 
 Report Start       	0:00 
 Start ClockTime    	0:00:00
 Statistic          	NONE

[REPORT]
 Status             	No
 Summary            	No
 Page               	0

[OPTIONS]
 Units              	LPS
 Headloss           	H-W
 Specific Gravity   	1.000000
 Viscosity          	1.000000
 Trials             	40
 Accuracy           	0.00100000
 CHECKFREQ          	2
 MAXCHECK           	10
 DAMPLIMIT          	0.00000000
 Unbalanced         	Continue 10
 Pattern            	1
 Demand Multiplier  	0.2
 Emitter Exponent   	0.5000
 Quality            	NONE mg/L
 Diffusivity        	1.000000
 Tolerance          	0.01000000

[COORDINATES]
;Node            	X-Coord           	Y-Coord
6               	491.780           	215.400           
7               	519.370           	215.850           
8               	491.340           	184.970           
9               	491.160           	153.310           
10              	519.590           	152.310           
11              	467.790           	112.470           
12              	503.420           	89.260            
14              	445.560           	82.490            
15              	469.940           	61.740            
16              	496.300           	-18.850           
17              	480.230           	6.240             
18              	447.890           	42.800            
19              	427.300           	66.410            
20              	402.440           	95.450            
21              	430.510           	134.960           
22              	432.320           	160.660           
23              	435.020           	189.510           
24              	436.560           	217.310           
36              	400.580           	230.380           
37              	398.490           	194.730           
38              	391.680           	160.360           
39              	369.540           	119.250           
40              	329.430           	137.270           
41              	352.540           	182.690           
42              	360.470           	207.970           
43              	361.490           	233.320           
49              	324.930           	237.040           
50              	318.950           	202.910           
51              	294.900           	157.570           
111             	361.400           	221.780           

[VERTICES]
;Link            	X-Coord           	Y-Coord

[LABELS]
;X-Coord             Y-Coord             Label & Anchor Node

[BACKDROP]
  DIMENSIONS  	0.000             	0.000             	10000.000         	10000.000         
 UNITS          	None
 FILE           	
 OFFSET         	0.00            	0.00            

[END]
